gem5 Simulator System.  http://gem5.org
gem5 is copyrighted software; use the --copyright option for details.

gem5 compiled Dec  8 2015 03:41:20
gem5 started Dec  8 2015 03:44:55
gem5 executing on ug220.eecg
command line: ./build/ALPHA/gem5.opt --debug-flags=ProtocolTrace,RubySlicc ./configs/example/ruby_random_test.py -n 2 --l1d_size 8kB --l1d_assoc 8
Global frequency set at 1000000000 ticks per second
info: Entering event queue @ 0.  Starting simulation...
              1   1        Seq               Begin       >       [0x14e8, line 0x14c0] ST
      2: system.l1_cntrl1: MSI-cache.sm:344: L1 - mandatoryQueue_in request of type ST for address [0x14c0, line 0x14c0] - No replacement necessary
              2   1    L1Cache               Store      I>IM_AD  [0x14c0, line 0x14c0] 
             11   0        Seq               Begin       >       [0x3ae8, line 0x3ac0] ST
     15: system.l1_cntrl0: MSI-cache.sm:344: L1 - mandatoryQueue_in request of type ST for address [0x3ac0, line 0x3ac0] - No replacement necessary
             15   0    L1Cache               Store      I>IM_AD  [0x3ac0, line 0x3ac0] 
     21: system.dir_cntrl0: MSI-dir.sm:226: Directory - requestQueue_in port: GETM request for address [0x14c0, line 0x14c0] from machine L1Cache-1
     21: system.dir_cntrl0: MSI-dir.sm:464: Directory - memQueue_out: send MEMORY_READ request for address [0x14c0, line 0x14c0] triggered from machine Directory-0
             21   0  Directory                GETM      I>IM_D   [0x14c0, line 0x14c0] 
             21   0        Seq               Begin       >       [0x14ec, line 0x14c0] ST
     22: system.l1_cntrl0: MSI-cache.sm:344: L1 - mandatoryQueue_in request of type ST for address [0x14c0, line 0x14c0] - No replacement necessary
             22   0    L1Cache               Store      I>IM_AD  [0x14c0, line 0x14c0] 
             31   1        Seq               Begin       >       [0xee8, line 0xec0] ST
     33: system.l1_cntrl1: MSI-cache.sm:344: L1 - mandatoryQueue_in request of type ST for address [0xec0, line 0xec0] - No replacement necessary
             33   1    L1Cache               Store      I>IM_AD  [0xec0, line 0xec0] 
             41   1        Seq               Begin       >       [0x2ee8, line 0x2ec0] ST
     43: system.l1_cntrl1: MSI-cache.sm:344: L1 - mandatoryQueue_in request of type ST for address [0x2ec0, line 0x2ec0] - No replacement necessary
             43   1    L1Cache               Store      I>IM_AD  [0x2ec0, line 0x2ec0] 
             51   1        Seq               Begin       >       [0x57e8, line 0x57c0] ST
     53: system.l1_cntrl1: MSI-cache.sm:344: L1 - mandatoryQueue_in request of type ST for address [0x57c0, line 0x57c0] - No replacement necessary
             53   1    L1Cache               Store      I>IM_AD  [0x57c0, line 0x57c0] 
             61   0        Seq               Begin       >       [0x444, line 0x440] ST
     62: system.l1_cntrl0: MSI-cache.sm:344: L1 - mandatoryQueue_in request of type ST for address [0x440, line 0x440] - No replacement necessary
             62   0    L1Cache               Store      I>IM_AD  [0x440, line 0x440] 
             71   1        Seq               Begin       >       [0x26e8, line 0x26c0] ST
     72: system.l1_cntrl1: MSI-cache.sm:344: L1 - mandatoryQueue_in request of type ST for address [0x26c0, line 0x26c0] - No replacement necessary
             72   1    L1Cache               Store      I>IM_AD  [0x26c0, line 0x26c0] 
             81   0        Seq               Begin       >       [0x4be8, line 0x4bc0] ST
             91   1        Seq               Begin       >       [0x2ae8, line 0x2ac0] ST
     93: system.l1_cntrl1: MSI-cache.sm:344: L1 - mandatoryQueue_in request of type ST for address [0x2ac0, line 0x2ac0] - No replacement necessary
             93   1    L1Cache               Store      I>IM_AD  [0x2ac0, line 0x2ac0] 
            101   1        Seq               Begin       >       [0x53e8, line 0x53c0] ST
            111   0        Seq               Begin       >       [0x17ec, line 0x17c0] ST
    115: system.l1_cntrl0: MSI-cache.sm:344: L1 - mandatoryQueue_in request of type ST for address [0x17c0, line 0x17c0] - No replacement necessary
            115   0    L1Cache               Store      I>IM_AD  [0x17c0, line 0x17c0] 
            121   1        Seq               Begin       >       [0x40e8, line 0x40c0] ST
    125: system.l1_cntrl1: MSI-cache.sm:344: L1 - mandatoryQueue_in request of type ST for address [0x40c0, line 0x40c0] - No replacement necessary
            125   1    L1Cache               Store      I>IM_AD  [0x40c0, line 0x40c0] 
            131   0        Seq               Begin       >       [0x24e8, line 0x24c0] ST
    132: system.l1_cntrl0: MSI-cache.sm:344: L1 - mandatoryQueue_in request of type ST for address [0x24c0, line 0x24c0] - No replacement necessary
            132   0    L1Cache               Store      I>IM_AD  [0x24c0, line 0x24c0] 
            141   1        Seq               Begin       >       [0x418, line 0x400] ST
    145: system.l1_cntrl1: MSI-cache.sm:344: L1 - mandatoryQueue_in request of type ST for address [0x400, line 0x400] - No replacement necessary
            145   1    L1Cache               Store      I>IM_AD  [0x400, line 0x400] 
            151   1        Seq               Begin       >       [0x61e8, line 0x61c0] ST
    152: system.l1_cntrl1: MSI-cache.sm:344: L1 - mandatoryQueue_in request of type ST for address [0x61c0, line 0x61c0] - No replacement necessary
            152   1    L1Cache               Store      I>IM_AD  [0x61c0, line 0x61c0] 
    162: system.dir_cntrl0: MSI-dir.sm:265: Directory - memQueue_in port: MEMORY_READ for address [0x14c0, line 0x14c0] from  machine L1Cache-1
    162: system.dir_cntrl0: MSI-dir.sm:512: Directory - Popping Request from memQueue
            162   0  Directory         Memory_Data   IM_D>M      [0x14c0, line 0x14c0] 
            171   0        Seq               Begin       >       [0x3eec, line 0x3ec0] ST
    173: system.l1_cntrl0: MSI-cache.sm:344: L1 - mandatoryQueue_in request of type ST for address [0x3ec0, line 0x3ec0] - No replacement necessary
            173   0    L1Cache               Store      I>IM_AD  [0x3ec0, line 0x3ec0] 
            181   1        Seq               Begin       >       [0x39ec, line 0x39c0] ST
    184: system.l1_cntrl0: MSI-cache.sm:344: L1 - mandatoryQueue_in request of type ST for address [0x4bc0, line 0x4bc0] - No replacement necessary
            184   0    L1Cache               Store      I>IM_AD  [0x4bc0, line 0x4bc0] 
            191   1        Seq               Begin       >       [0x2bec, line 0x2bc0] ST
    195: system.l1_cntrl1: MSI-cache.sm:344: L1 - mandatoryQueue_in request of type ST for address [0x2bc0, line 0x2bc0] - No replacement necessary
            195   1    L1Cache               Store      I>IM_AD  [0x2bc0, line 0x2bc0] 
            201   1        Seq               Begin       >       [0x62ec, line 0x62c0] ST
    205: system.l1_cntrl1: MSI-cache.sm:344: L1 - mandatoryQueue_in request of type ST for address [0x62c0, line 0x62c0] - No replacement necessary
            205   1    L1Cache               Store      I>IM_AD  [0x62c0, line 0x62c0] 
    214: system.l1_cntrl1: MSI-cache.sm:344: L1 - mandatoryQueue_in request of type ST for address [0x53c0, line 0x53c0] - No replacement necessary
            214   1    L1Cache               Store      I>IM_AD  [0x53c0, line 0x53c0] 
            221   0        Seq               Begin       >       [0x5ec, line 0x5c0] ST
    223: system.l1_cntrl0: MSI-cache.sm:344: L1 - mandatoryQueue_in request of type ST for address [0x5c0, line 0x5c0] - No replacement necessary
            223   0    L1Cache               Store      I>IM_AD  [0x5c0, line 0x5c0] 
            231   0        Seq               Begin       >       [0x3be8, line 0x3bc0] ST
    233: system.l1_cntrl0: MSI-cache.sm:344: L1 - mandatoryQueue_in request of type ST for address [0x3bc0, line 0x3bc0] - No replacement necessary
            233   0    L1Cache               Store      I>IM_AD  [0x3bc0, line 0x3bc0] 
    244: system.dir_cntrl0: MSI-dir.sm:226: Directory - requestQueue_in port: GETM request for address [0x3ac0, line 0x3ac0] from machine L1Cache-0
    244: system.dir_cntrl0: MSI-dir.sm:464: Directory - memQueue_out: send MEMORY_READ request for address [0x3ac0, line 0x3ac0] triggered from machine Directory-0
            244   0  Directory                GETM      I>IM_D   [0x3ac0, line 0x3ac0] 
    247: system.dir_cntrl0: MSI-dir.sm:226: Directory - requestQueue_in port: GETM request for address [0x14c0, line 0x14c0] from machine L1Cache-0
    247: system.dir_cntrl0: MSI-dir.sm:412: Directory - forwardNetwork_out: forwarding message type GETM for address [0x14c0, line 0x14c0]  from machine L1Cache-0 to machine [NetDest (2) 0 1  - 0  - ]
            247   0  Directory                GETM      M>M      [0x14c0, line 0x14c0] Own: [NetDest (2) 0 1  - 0  - ]Req: L1Cache-0
    249: system.dir_cntrl0: MSI-dir.sm:226: Directory - requestQueue_in port: GETM request for address [0x440, line 0x440] from machine L1Cache-0
    249: system.dir_cntrl0: MSI-dir.sm:464: Directory - memQueue_out: send MEMORY_READ request for address [0x440, line 0x440] triggered from machine Directory-0
            249   0  Directory                GETM      I>IM_D   [0x440, line 0x440] 
            251   0        Seq               Begin       >       [0x5fe8, line 0x5fc0] ST
    253: system.dir_cntrl0: MSI-dir.sm:226: Directory - requestQueue_in port: GETM request for address [0x17c0, line 0x17c0] from machine L1Cache-0
    253: system.dir_cntrl0: MSI-dir.sm:464: Directory - memQueue_out: send MEMORY_READ request for address [0x17c0, line 0x17c0] triggered from machine Directory-0
            253   0  Directory                GETM      I>IM_D   [0x17c0, line 0x17c0] 
    255: system.dir_cntrl0: MSI-dir.sm:226: Directory - requestQueue_in port: GETM request for address [0x24c0, line 0x24c0] from machine L1Cache-0
    255: system.dir_cntrl0: MSI-dir.sm:464: Directory - memQueue_out: send MEMORY_READ request for address [0x24c0, line 0x24c0] triggered from machine Directory-0
            255   0  Directory                GETM      I>IM_D   [0x24c0, line 0x24c0] 
    255: system.l1_cntrl0: MSI-cache.sm:344: L1 - mandatoryQueue_in request of type ST for address [0x5fc0, line 0x5fc0] - No replacement necessary
            255   0    L1Cache               Store      I>IM_AD  [0x5fc0, line 0x5fc0] 
    259: system.dir_cntrl0: MSI-dir.sm:226: Directory - requestQueue_in port: GETM request for address [0xec0, line 0xec0] from machine L1Cache-1
    259: system.dir_cntrl0: MSI-dir.sm:464: Directory - memQueue_out: send MEMORY_READ request for address [0xec0, line 0xec0] triggered from machine Directory-0
            259   0  Directory                GETM      I>IM_D   [0xec0, line 0xec0] 
    266: system.l1_cntrl1: MSI-cache.sm:259: L1 - forwardRequestNetwork_in port: GETM request for address [0x14c0, line 0x14c0]
            266   1    L1Cache            Fwd_GetM  IM_AD>IM_AD  [0x14c0, line 0x14c0] Protocol Stall
    269: system.dir_cntrl0: MSI-dir.sm:226: Directory - requestQueue_in port: GETM request for address [0x2ec0, line 0x2ec0] from machine L1Cache-1
    269: system.dir_cntrl0: MSI-dir.sm:464: Directory - memQueue_out: send MEMORY_READ request for address [0x2ec0, line 0x2ec0] triggered from machine Directory-0
            269   0  Directory                GETM      I>IM_D   [0x2ec0, line 0x2ec0] 
            271   1        Seq               Begin       >       [0x5dec, line 0x5dc0] ST
    272: system.dir_cntrl0: MSI-dir.sm:226: Directory - requestQueue_in port: GETM request for address [0x57c0, line 0x57c0] from machine L1Cache-1
    272: system.dir_cntrl0: MSI-dir.sm:464: Directory - memQueue_out: send MEMORY_READ request for address [0x57c0, line 0x57c0] triggered from machine Directory-0
            272   0  Directory                GETM      I>IM_D   [0x57c0, line 0x57c0] 
            281   0        Seq               Begin       >       [0x40ec, line 0x40c0] ST
    285: system.l1_cntrl0: MSI-cache.sm:344: L1 - mandatoryQueue_in request of type ST for address [0x40c0, line 0x40c0] - No replacement necessary
            285   0    L1Cache               Store      I>IM_AD  [0x40c0, line 0x40c0] 
    290: system.l1_cntrl1: MSI-cache.sm:259: L1 - forwardRequestNetwork_in port: GETM request for address [0x14c0, line 0x14c0]
            290   1    L1Cache            Fwd_GetM  IM_AD>IM_AD  [0x14c0, line 0x14c0] Protocol Stall
    290: system.l1_cntrl1: MSI-cache.sm:294: L1 - responseNetwork_in port: DATA_FROM_DIR_NO_ACKS reply for address [0x14c0, line 0x14c0]
    290: system.l1_cntrl1: MSI-cache.sm:549: [ 0x0 0x0 0x0 0x0 0x0 0x0 0x0 0x0 0x0 0x0 0x0 0x0 0x0 0x0 0x0 0x0 0x0 0x0 0x0 0x0 0x0 0x0 0x0 0x0 0x0 0x0 0x0 0x0 0x0 0x0 0x0 0x0 0x0 0x0 0x0 0x0 0x0 0x0 0x0 0x0 0x0 0x0 0x0 0x0 0x0 0x0 0x0 0x0 0x0 0x0 0x0 0x0 0x0 0x0 0x0 0x0 0x0 0x0 0x0 0x0 0x0 0x0 0x0 0x0 ]
            290   1        Seq                Done       >       [0x14e8, line 0x14c0] 289 cycles
    290: system.l1_cntrl1: MSI-cache.sm:553: light6 address=[0x14c0, line 0x14c0] data=[ 0x0 0x0 0x0 0x0 0x0 0x0 0x0 0x0 0x0 0x0 0x0 0x0 0x0 0x0 0x0 0x0 0x0 0x0 0x0 0x0 0x0 0x0 0x0 0x0 0x0 0x0 0x0 0x0 0x0 0x0 0x0 0x0 0x0 0x0 0x0 0x0 0x0 0x0 0x0 0x0 0xe2 0x0 0x0 0x0 0x0 0x0 0x0 0x0 0x0 0x0 0x0 0x0 0x0 0x0 0x0 0x0 0x0 0x0 0x0 0x0 0x0 0x0 0x0 0x0 ]
            290   1    L1CacheData_from_Dir_No_Acks  IM_AD>M      [0x14c0, line 0x14c0] 
    290: system.l1_cntrl1: MSI-cache.sm:259: L1 - forwardRequestNetwork_in port: GETM request for address [0x14c0, line 0x14c0]
    290: system.l1_cntrl1: MSI-cache.sm:583: forward_eviction to cpu; send_evictions is 0
            290   1    L1Cache            Fwd_GetM      M>I      [0x14c0, line 0x14c0] 
    291: system.l1_cntrl1: MSI-cache.sm:344: L1 - mandatoryQueue_in request of type ST for address [0x39c0, line 0x39c0] - No replacement necessary
            291   1    L1Cache               Store      I>IM_AD  [0x39c0, line 0x39c0] 
            291   0        Seq               Begin       >       [0x438, line 0x400] ST
    292: system.l1_cntrl0: MSI-cache.sm:344: L1 - mandatoryQueue_in request of type ST for address [0x400, line 0x400] - No replacement necessary
            292   0    L1Cache               Store      I>IM_AD  [0x400, line 0x400] 
            311   0        Seq               Begin       >       [0x59ec, line 0x59c0] ST
    312: system.l1_cntrl0: MSI-cache.sm:344: L1 - mandatoryQueue_in request of type ST for address [0x59c0, line 0x59c0] - No replacement necessary
            312   0    L1Cache               Store      I>IM_AD  [0x59c0, line 0x59c0] 
            321   0        Seq               Begin       >       [0x5ae8, line 0x5ac0] ST
    323: system.l1_cntrl0: MSI-cache.sm:344: L1 - mandatoryQueue_in request of type ST for address [0x5ac0, line 0x5ac0] - No replacement necessary
            323   0    L1Cache               Store      I>IM_AD  [0x5ac0, line 0x5ac0] 
            331   1        Seq               Begin       >       [0x45c, line 0x440] ST
    334: system.l1_cntrl1: MSI-cache.sm:344: L1 - mandatoryQueue_in request of type ST for address [0x440, line 0x440] - No replacement necessary
            334   1    L1Cache               Store      I>IM_AD  [0x440, line 0x440] 
            351   1        Seq               Begin       >       [0x41ec, line 0x41c0] ST
    352: system.l1_cntrl1: MSI-cache.sm:344: L1 - mandatoryQueue_in request of type ST for address [0x41c0, line 0x41c0] - No replacement necessary
            352   1    L1Cache               Store      I>IM_AD  [0x41c0, line 0x41c0] 
            361   0        Seq               Begin       >       [0x64ec, line 0x64c0] ST
    362: system.l1_cntrl0: MSI-cache.sm:344: L1 - mandatoryQueue_in request of type ST for address [0x64c0, line 0x64c0] - No replacement necessary
            362   0    L1Cache               Store      I>IM_AD  [0x64c0, line 0x64c0] 
            371   1        Seq               Begin       >       [0x66ec, line 0x66c0] ST
    375: system.l1_cntrl1: MSI-cache.sm:344: L1 - mandatoryQueue_in request of type ST for address [0x5dc0, line 0x5dc0] - No replacement necessary
            375   1    L1Cache               Store      I>IM_AD  [0x5dc0, line 0x5dc0] 
    375: system.l1_cntrl1: MSI-cache.sm:344: L1 - mandatoryQueue_in request of type ST for address [0x66c0, line 0x66c0] - No replacement necessary
            375   1    L1Cache               Store      I>IM_AD  [0x66c0, line 0x66c0] 
    378: system.dir_cntrl0: MSI-dir.sm:226: Directory - requestQueue_in port: GETM request for address [0x26c0, line 0x26c0] from machine L1Cache-1
    378: system.dir_cntrl0: MSI-dir.sm:464: Directory - memQueue_out: send MEMORY_READ request for address [0x26c0, line 0x26c0] triggered from machine Directory-0
            378   0  Directory                GETM      I>IM_D   [0x26c0, line 0x26c0] 
    382: system.dir_cntrl0: MSI-dir.sm:265: Directory - memQueue_in port: MEMORY_READ for address [0x3ac0, line 0x3ac0] from  machine L1Cache-0
    382: system.dir_cntrl0: MSI-dir.sm:512: Directory - Popping Request from memQueue
            382   0  Directory         Memory_Data   IM_D>M      [0x3ac0, line 0x3ac0] 
            391   0        Seq               Begin       >       [0x5ee8, line 0x5ec0] ST
    393: system.l1_cntrl0: MSI-cache.sm:344: L1 - mandatoryQueue_in request of type ST for address [0x5ec0, line 0x5ec0] - No replacement necessary
            393   0    L1Cache               Store      I>IM_AD  [0x5ec0, line 0x5ec0] 
    412: system.dir_cntrl0: MSI-dir.sm:265: Directory - memQueue_in port: MEMORY_READ for address [0x440, line 0x440] from  machine L1Cache-0
    412: system.dir_cntrl0: MSI-dir.sm:512: Directory - Popping Request from memQueue
            412   0  Directory         Memory_Data   IM_D>M      [0x440, line 0x440] 
    427: system.l1_cntrl0: MSI-cache.sm:307: L1 - responseNetwork_in port: DATA_FROM_OWNER reply for address [0x14c0, line 0x14c0]
    427: system.l1_cntrl0: MSI-cache.sm:549: [ 0x0 0x0 0x0 0x0 0x0 0x0 0x0 0x0 0x0 0x0 0x0 0x0 0x0 0x0 0x0 0x0 0x0 0x0 0x0 0x0 0x0 0x0 0x0 0x0 0x0 0x0 0x0 0x0 0x0 0x0 0x0 0x0 0x0 0x0 0x0 0x0 0x0 0x0 0x0 0x0 0xe2 0x0 0x0 0x0 0x0 0x0 0x0 0x0 0x0 0x0 0x0 0x0 0x0 0x0 0x0 0x0 0x0 0x0 0x0 0x0 0x0 0x0 0x0 0x0 ]
            427   0        Seq                Done       >       [0x14ec, line 0x14c0] 406 cycles
    427: system.l1_cntrl0: MSI-cache.sm:553: light6 address=[0x14c0, line 0x14c0] data=[ 0x0 0x0 0x0 0x0 0x0 0x0 0x0 0x0 0x0 0x0 0x0 0x0 0x0 0x0 0x0 0x0 0x0 0x0 0x0 0x0 0x0 0x0 0x0 0x0 0x0 0x0 0x0 0x0 0x0 0x0 0x0 0x0 0x0 0x0 0x0 0x0 0x0 0x0 0x0 0x0 0xe2 0x0 0x0 0x0 0x48 0x0 0x0 0x0 0x0 0x0 0x0 0x0 0x0 0x0 0x0 0x0 0x0 0x0 0x0 0x0 0x0 0x0 0x0 0x0 ]
            427   0    L1Cache     Data_from_Owner  IM_AD>M      [0x14c0, line 0x14c0] 
    442: system.dir_cntrl0: MSI-dir.sm:265: Directory - memQueue_in port: MEMORY_READ for address [0xec0, line 0xec0] from  machine L1Cache-1
    442: system.dir_cntrl0: MSI-dir.sm:512: Directory - Popping Request from memQueue
            442   0  Directory         Memory_Data   IM_D>M      [0xec0, line 0xec0] 
            471   0        Seq               Begin       >       [0x11e8, line 0x11c0] ST
    472: system.dir_cntrl0: MSI-dir.sm:265: Directory - memQueue_in port: MEMORY_READ for address [0x17c0, line 0x17c0] from  machine L1Cache-0
    472: system.dir_cntrl0: MSI-dir.sm:512: Directory - Popping Request from memQueue
            472   0  Directory         Memory_Data   IM_D>M      [0x17c0, line 0x17c0] 
    474: system.l1_cntrl0: MSI-cache.sm:344: L1 - mandatoryQueue_in request of type ST for address [0x11c0, line 0x11c0] - No replacement necessary
            474   0    L1Cache               Store      I>IM_AD  [0x11c0, line 0x11c0] 
    489: system.dir_cntrl0: MSI-dir.sm:226: Directory - requestQueue_in port: GETM request for address [0x2ac0, line 0x2ac0] from machine L1Cache-1
    489: system.dir_cntrl0: MSI-dir.sm:464: Directory - memQueue_out: send MEMORY_READ request for address [0x2ac0, line 0x2ac0] triggered from machine Directory-0
            489   0  Directory                GETM      I>IM_D   [0x2ac0, line 0x2ac0] 
    509: system.l1_cntrl0: MSI-cache.sm:294: L1 - responseNetwork_in port: DATA_FROM_DIR_NO_ACKS reply for address [0x3ac0, line 0x3ac0]
    509: system.l1_cntrl0: MSI-cache.sm:549: [ 0x0 0x0 0x0 0x0 0x0 0x0 0x0 0x0 0x0 0x0 0x0 0x0 0x0 0x0 0x0 0x0 0x0 0x0 0x0 0x0 0x0 0x0 0x0 0x0 0x0 0x0 0x0 0x0 0x0 0x0 0x0 0x0 0x0 0x0 0x0 0x0 0x0 0x0 0x0 0x0 0x0 0x0 0x0 0x0 0x0 0x0 0x0 0x0 0x0 0x0 0x0 0x0 0x0 0x0 0x0 0x0 0x0 0x0 0x0 0x0 0x0 0x0 0x0 0x0 ]
            509   0        Seq                Done       >       [0x3ae8, line 0x3ac0] 498 cycles
    509: system.l1_cntrl0: MSI-cache.sm:553: light6 address=[0x3ac0, line 0x3ac0] data=[ 0x0 0x0 0x0 0x0 0x0 0x0 0x0 0x0 0x0 0x0 0x0 0x0 0x0 0x0 0x0 0x0 0x0 0x0 0x0 0x0 0x0 0x0 0x0 0x0 0x0 0x0 0x0 0x0 0x0 0x0 0x0 0x0 0x0 0x0 0x0 0x0 0x0 0x0 0x0 0x0 0x35 0x0 0x0 0x0 0x0 0x0 0x0 0x0 0x0 0x0 0x0 0x0 0x0 0x0 0x0 0x0 0x0 0x0 0x0 0x0 0x0 0x0 0x0 0x0 ]
            509   0    L1CacheData_from_Dir_No_Acks  IM_AD>M      [0x3ac0, line 0x3ac0] 
    512: system.dir_cntrl0: MSI-dir.sm:265: Directory - memQueue_in port: MEMORY_READ for address [0x26c0, line 0x26c0] from  machine L1Cache-1
    512: system.dir_cntrl0: MSI-dir.sm:512: Directory - Popping Request from memQueue
            512   0  Directory         Memory_Data   IM_D>M      [0x26c0, line 0x26c0] 
    532: system.dir_cntrl0: MSI-dir.sm:265: Directory - memQueue_in port: MEMORY_READ for address [0x24c0, line 0x24c0] from  machine L1Cache-0
    532: system.dir_cntrl0: MSI-dir.sm:512: Directory - Popping Request from memQueue
            532   0  Directory         Memory_Data   IM_D>M      [0x24c0, line 0x24c0] 
    562: system.dir_cntrl0: MSI-dir.sm:265: Directory - memQueue_in port: MEMORY_READ for address [0x2ec0, line 0x2ec0] from  machine L1Cache-1
    562: system.dir_cntrl0: MSI-dir.sm:512: Directory - Popping Request from memQueue
            562   0  Directory         Memory_Data   IM_D>M      [0x2ec0, line 0x2ec0] 
            571   0        Seq               Begin       >       [0x13ec, line 0x13c0] ST
    572: system.l1_cntrl0: MSI-cache.sm:344: L1 - mandatoryQueue_in request of type ST for address [0x13c0, line 0x13c0] - No replacement necessary
            572   0    L1Cache               Store      I>IM_AD  [0x13c0, line 0x13c0] 
    592: system.dir_cntrl0: MSI-dir.sm:265: Directory - memQueue_in port: MEMORY_READ for address [0x57c0, line 0x57c0] from  machine L1Cache-1
    592: system.dir_cntrl0: MSI-dir.sm:512: Directory - Popping Request from memQueue
            592   0  Directory         Memory_Data   IM_D>M      [0x57c0, line 0x57c0] 
    602: system.dir_cntrl0: MSI-dir.sm:226: Directory - requestQueue_in port: GETM request for address [0x40c0, line 0x40c0] from machine L1Cache-1
    602: system.dir_cntrl0: MSI-dir.sm:464: Directory - memQueue_out: send MEMORY_READ request for address [0x40c0, line 0x40c0] triggered from machine Directory-0
            602   0  Directory                GETM      I>IM_D   [0x40c0, line 0x40c0] 
    604: system.dir_cntrl0: MSI-dir.sm:226: Directory - requestQueue_in port: GETM request for address [0x3ec0, line 0x3ec0] from machine L1Cache-0
    604: system.dir_cntrl0: MSI-dir.sm:464: Directory - memQueue_out: send MEMORY_READ request for address [0x3ec0, line 0x3ec0] triggered from machine Directory-0
            604   0  Directory                GETM      I>IM_D   [0x3ec0, line 0x3ec0] 
    637: system.l1_cntrl0: MSI-cache.sm:294: L1 - responseNetwork_in port: DATA_FROM_DIR_NO_ACKS reply for address [0x440, line 0x440]
    637: system.l1_cntrl0: MSI-cache.sm:549: [ 0x0 0x0 0x0 0x0 0x0 0x0 0x0 0x0 0x0 0x0 0x0 0x0 0x0 0x0 0x0 0x0 0x0 0x0 0x0 0x0 0x0 0x0 0x0 0x0 0x0 0x0 0x0 0x0 0x0 0x0 0x0 0x0 0x0 0x0 0x0 0x0 0x0 0x0 0x0 0x0 0x0 0x0 0x0 0x0 0x0 0x0 0x0 0x0 0x0 0x0 0x0 0x0 0x0 0x0 0x0 0x0 0x0 0x0 0x0 0x0 0x0 0x0 0x0 0x0 ]
            637   0        Seq                Done       >       [0x444, line 0x440] 576 cycles
    637: system.l1_cntrl0: MSI-cache.sm:553: light6 address=[0x440, line 0x440] data=[ 0x0 0x0 0x0 0x0 0x57 0x0 0x0 0x0 0x0 0x0 0x0 0x0 0x0 0x0 0x0 0x0 0x0 0x0 0x0 0x0 0x0 0x0 0x0 0x0 0x0 0x0 0x0 0x0 0x0 0x0 0x0 0x0 0x0 0x0 0x0 0x0 0x0 0x0 0x0 0x0 0x0 0x0 0x0 0x0 0x0 0x0 0x0 0x0 0x0 0x0 0x0 0x0 0x0 0x0 0x0 0x0 0x0 0x0 0x0 0x0 0x0 0x0 0x0 0x0 ]
            637   0    L1CacheData_from_Dir_No_Acks  IM_AD>M      [0x440, line 0x440] 
    642: system.dir_cntrl0: MSI-dir.sm:265: Directory - memQueue_in port: MEMORY_READ for address [0x2ac0, line 0x2ac0] from  machine L1Cache-1
    642: system.dir_cntrl0: MSI-dir.sm:512: Directory - Popping Request from memQueue
            642   0  Directory         Memory_Data   IM_D>M      [0x2ac0, line 0x2ac0] 
            691   0        Seq               Begin       >       [0x2eec, line 0x2ec0] ST
    693: system.l1_cntrl0: MSI-cache.sm:344: L1 - mandatoryQueue_in request of type ST for address [0x2ec0, line 0x2ec0] - No replacement necessary
            693   0    L1Cache               Store      I>IM_AD  [0x2ec0, line 0x2ec0] 
    720: system.dir_cntrl0: MSI-dir.sm:226: Directory - requestQueue_in port: GETM request for address [0x4bc0, line 0x4bc0] from machine L1Cache-0
    720: system.dir_cntrl0: MSI-dir.sm:464: Directory - memQueue_out: send MEMORY_READ request for address [0x4bc0, line 0x4bc0] triggered from machine Directory-0
            720   0  Directory                GETM      I>IM_D   [0x4bc0, line 0x4bc0] 
    723: system.dir_cntrl0: MSI-dir.sm:226: Directory - requestQueue_in port: GETM request for address [0x400, line 0x400] from machine L1Cache-1
    723: system.dir_cntrl0: MSI-dir.sm:464: Directory - memQueue_out: send MEMORY_READ request for address [0x400, line 0x400] triggered from machine Directory-0
            723   0  Directory                GETM      I>IM_D   [0x400, line 0x400] 
    727: system.dir_cntrl0: MSI-dir.sm:226: Directory - requestQueue_in port: GETM request for address [0x61c0, line 0x61c0] from machine L1Cache-1
    727: system.dir_cntrl0: MSI-dir.sm:464: Directory - memQueue_out: send MEMORY_READ request for address [0x61c0, line 0x61c0] triggered from machine Directory-0
            727   0  Directory                GETM      I>IM_D   [0x61c0, line 0x61c0] 
    731: system.dir_cntrl0: MSI-dir.sm:226: Directory - requestQueue_in port: GETM request for address [0x2bc0, line 0x2bc0] from machine L1Cache-1
    731: system.dir_cntrl0: MSI-dir.sm:464: Directory - memQueue_out: send MEMORY_READ request for address [0x2bc0, line 0x2bc0] triggered from machine Directory-0
            731   0  Directory                GETM      I>IM_D   [0x2bc0, line 0x2bc0] 
    742: system.dir_cntrl0: MSI-dir.sm:265: Directory - memQueue_in port: MEMORY_READ for address [0x40c0, line 0x40c0] from  machine L1Cache-1
    742: system.dir_cntrl0: MSI-dir.sm:512: Directory - Popping Request from memQueue
            742   0  Directory         Memory_Data   IM_D>M      [0x40c0, line 0x40c0] 
    752: system.l1_cntrl0: MSI-cache.sm:294: L1 - responseNetwork_in port: DATA_FROM_DIR_NO_ACKS reply for address [0x17c0, line 0x17c0]
    752: system.l1_cntrl0: MSI-cache.sm:549: [ 0x0 0x0 0x0 0x0 0x0 0x0 0x0 0x0 0x0 0x0 0x0 0x0 0x0 0x0 0x0 0x0 0x0 0x0 0x0 0x0 0x0 0x0 0x0 0x0 0x0 0x0 0x0 0x0 0x0 0x0 0x0 0x0 0x0 0x0 0x0 0x0 0x0 0x0 0x0 0x0 0x0 0x0 0x0 0x0 0x0 0x0 0x0 0x0 0x0 0x0 0x0 0x0 0x0 0x0 0x0 0x0 0x0 0x0 0x0 0x0 0x0 0x0 0x0 0x0 ]
            752   0        Seq                Done       >       [0x17ec, line 0x17c0] 641 cycles
    752: system.l1_cntrl0: MSI-cache.sm:553: light6 address=[0x17c0, line 0x17c0] data=[ 0x0 0x0 0x0 0x0 0x0 0x0 0x0 0x0 0x0 0x0 0x0 0x0 0x0 0x0 0x0 0x0 0x0 0x0 0x0 0x0 0x0 0x0 0x0 0x0 0x0 0x0 0x0 0x0 0x0 0x0 0x0 0x0 0x0 0x0 0x0 0x0 0x0 0x0 0x0 0x0 0x0 0x0 0x0 0x0 0x96 0x0 0x0 0x0 0x0 0x0 0x0 0x0 0x0 0x0 0x0 0x0 0x0 0x0 0x0 0x0 0x0 0x0 0x0 0x0 ]
            752   0    L1CacheData_from_Dir_No_Acks  IM_AD>M      [0x17c0, line 0x17c0] 
    756: system.l1_cntrl0: MSI-cache.sm:294: L1 - responseNetwork_in port: DATA_FROM_DIR_NO_ACKS reply for address [0x24c0, line 0x24c0]
    756: system.l1_cntrl0: MSI-cache.sm:549: [ 0x0 0x0 0x0 0x0 0x0 0x0 0x0 0x0 0x0 0x0 0x0 0x0 0x0 0x0 0x0 0x0 0x0 0x0 0x0 0x0 0x0 0x0 0x0 0x0 0x0 0x0 0x0 0x0 0x0 0x0 0x0 0x0 0x0 0x0 0x0 0x0 0x0 0x0 0x0 0x0 0x0 0x0 0x0 0x0 0x0 0x0 0x0 0x0 0x0 0x0 0x0 0x0 0x0 0x0 0x0 0x0 0x0 0x0 0x0 0x0 0x0 0x0 0x0 0x0 ]
            756   0        Seq                Done       >       [0x24e8, line 0x24c0] 625 cycles
    756: system.l1_cntrl0: MSI-cache.sm:553: light6 address=[0x24c0, line 0x24c0] data=[ 0x0 0x0 0x0 0x0 0x0 0x0 0x0 0x0 0x0 0x0 0x0 0x0 0x0 0x0 0x0 0x0 0x0 0x0 0x0 0x0 0x0 0x0 0x0 0x0 0x0 0x0 0x0 0x0 0x0 0x0 0x0 0x0 0x0 0x0 0x0 0x0 0x0 0x0 0x0 0x0 0x9b 0x0 0x0 0x0 0x0 0x0 0x0 0x0 0x0 0x0 0x0 0x0 0x0 0x0 0x0 0x0 0x0 0x0 0x0 0x0 0x0 0x0 0x0 0x0 ]
            756   0    L1CacheData_from_Dir_No_Acks  IM_AD>M      [0x24c0, line 0x24c0] 
            771   0        Seq               Begin       >       [0x4e8, line 0x4c0] ST
    772: system.dir_cntrl0: MSI-dir.sm:265: Directory - memQueue_in port: MEMORY_READ for address [0x3ec0, line 0x3ec0] from  machine L1Cache-0
    772: system.dir_cntrl0: MSI-dir.sm:512: Directory - Popping Request from memQueue
            772   0  Directory         Memory_Data   IM_D>M      [0x3ec0, line 0x3ec0] 
    774: system.l1_cntrl0: MSI-cache.sm:344: L1 - mandatoryQueue_in request of type ST for address [0x4c0, line 0x4c0] - No replacement necessary
            774   0    L1Cache               Store      I>IM_AD  [0x4c0, line 0x4c0] 
            781   0        Seq               Begin       >       [0x39e8, line 0x39c0] ST
    823: system.dir_cntrl0: MSI-dir.sm:226: Directory - requestQueue_in port: GETM request for address [0x62c0, line 0x62c0] from machine L1Cache-1
    823: system.dir_cntrl0: MSI-dir.sm:464: Directory - memQueue_out: send MEMORY_READ request for address [0x62c0, line 0x62c0] triggered from machine Directory-0
            823   0  Directory                GETM      I>IM_D   [0x62c0, line 0x62c0] 
    826: system.dir_cntrl0: MSI-dir.sm:226: Directory - requestQueue_in port: GETM request for address [0x53c0, line 0x53c0] from machine L1Cache-1
    826: system.dir_cntrl0: MSI-dir.sm:464: Directory - memQueue_out: send MEMORY_READ request for address [0x53c0, line 0x53c0] triggered from machine Directory-0
            826   0  Directory                GETM      I>IM_D   [0x53c0, line 0x53c0] 
    828: system.dir_cntrl0: MSI-dir.sm:226: Directory - requestQueue_in port: GETM request for address [0x39c0, line 0x39c0] from machine L1Cache-1
    828: system.dir_cntrl0: MSI-dir.sm:464: Directory - memQueue_out: send MEMORY_READ request for address [0x39c0, line 0x39c0] triggered from machine Directory-0
            828   0  Directory                GETM      I>IM_D   [0x39c0, line 0x39c0] 
    852: system.dir_cntrl0: MSI-dir.sm:265: Directory - memQueue_in port: MEMORY_READ for address [0x4bc0, line 0x4bc0] from  machine L1Cache-0
    852: system.dir_cntrl0: MSI-dir.sm:512: Directory - Popping Request from memQueue
            852   0  Directory         Memory_Data   IM_D>M      [0x4bc0, line 0x4bc0] 
    862: system.l1_cntrl1: MSI-cache.sm:294: L1 - responseNetwork_in port: DATA_FROM_DIR_NO_ACKS reply for address [0xec0, line 0xec0]
    862: system.l1_cntrl1: MSI-cache.sm:549: [ 0x0 0x0 0x0 0x0 0x0 0x0 0x0 0x0 0x0 0x0 0x0 0x0 0x0 0x0 0x0 0x0 0x0 0x0 0x0 0x0 0x0 0x0 0x0 0x0 0x0 0x0 0x0 0x0 0x0 0x0 0x0 0x0 0x0 0x0 0x0 0x0 0x0 0x0 0x0 0x0 0x0 0x0 0x0 0x0 0x0 0x0 0x0 0x0 0x0 0x0 0x0 0x0 0x0 0x0 0x0 0x0 0x0 0x0 0x0 0x0 0x0 0x0 0x0 0x0 ]
            862   1        Seq                Done       >       [0xee8, line 0xec0] 831 cycles
    862: system.l1_cntrl1: MSI-cache.sm:553: light6 address=[0xec0, line 0xec0] data=[ 0x0 0x0 0x0 0x0 0x0 0x0 0x0 0x0 0x0 0x0 0x0 0x0 0x0 0x0 0x0 0x0 0x0 0x0 0x0 0x0 0x0 0x0 0x0 0x0 0x0 0x0 0x0 0x0 0x0 0x0 0x0 0x0 0x0 0x0 0x0 0x0 0x0 0x0 0x0 0x0 0x4 0x0 0x0 0x0 0x0 0x0 0x0 0x0 0x0 0x0 0x0 0x0 0x0 0x0 0x0 0x0 0x0 0x0 0x0 0x0 0x0 0x0 0x0 0x0 ]
            862   1    L1CacheData_from_Dir_No_Acks  IM_AD>M      [0xec0, line 0xec0] 
    869: system.l1_cntrl1: MSI-cache.sm:294: L1 - responseNetwork_in port: DATA_FROM_DIR_NO_ACKS reply for address [0x26c0, line 0x26c0]
    869: system.l1_cntrl1: MSI-cache.sm:549: [ 0x0 0x0 0x0 0x0 0x0 0x0 0x0 0x0 0x0 0x0 0x0 0x0 0x0 0x0 0x0 0x0 0x0 0x0 0x0 0x0 0x0 0x0 0x0 0x0 0x0 0x0 0x0 0x0 0x0 0x0 0x0 0x0 0x0 0x0 0x0 0x0 0x0 0x0 0x0 0x0 0x0 0x0 0x0 0x0 0x0 0x0 0x0 0x0 0x0 0x0 0x0 0x0 0x0 0x0 0x0 0x0 0x0 0x0 0x0 0x0 0x0 0x0 0x0 0x0 ]
            869   1        Seq                Done       >       [0x26e8, line 0x26c0] 798 cycles
    869: system.l1_cntrl1: MSI-cache.sm:553: light6 address=[0x26c0, line 0x26c0] data=[ 0x0 0x0 0x0 0x0 0x0 0x0 0x0 0x0 0x0 0x0 0x0 0x0 0x0 0x0 0x0 0x0 0x0 0x0 0x0 0x0 0x0 0x0 0x0 0x0 0x0 0x0 0x0 0x0 0x0 0x0 0x0 0x0 0x0 0x0 0x0 0x0 0x0 0x0 0x0 0x0 0xa0 0x0 0x0 0x0 0x0 0x0 0x0 0x0 0x0 0x0 0x0 0x0 0x0 0x0 0x0 0x0 0x0 0x0 0x0 0x0 0x0 0x0 0x0 0x0 ]
            869   1    L1CacheData_from_Dir_No_Acks  IM_AD>M      [0x26c0, line 0x26c0] 
            871   1        Seq               Begin       >       [0x4ec, line 0x4c0] ST
    872: system.l1_cntrl1: MSI-cache.sm:294: L1 - responseNetwork_in port: DATA_FROM_DIR_NO_ACKS reply for address [0x2ec0, line 0x2ec0]
    872: system.l1_cntrl1: MSI-cache.sm:549: [ 0x0 0x0 0x0 0x0 0x0 0x0 0x0 0x0 0x0 0x0 0x0 0x0 0x0 0x0 0x0 0x0 0x0 0x0 0x0 0x0 0x0 0x0 0x0 0x0 0x0 0x0 0x0 0x0 0x0 0x0 0x0 0x0 0x0 0x0 0x0 0x0 0x0 0x0 0x0 0x0 0x0 0x0 0x0 0x0 0x0 0x0 0x0 0x0 0x0 0x0 0x0 0x0 0x0 0x0 0x0 0x0 0x0 0x0 0x0 0x0 0x0 0x0 0x0 0x0 ]
            872   1        Seq                Done       >       [0x2ee8, line 0x2ec0] 831 cycles
    872: system.l1_cntrl1: MSI-cache.sm:553: light6 address=[0x2ec0, line 0x2ec0] data=[ 0x0 0x0 0x0 0x0 0x0 0x0 0x0 0x0 0x0 0x0 0x0 0x0 0x0 0x0 0x0 0x0 0x0 0x0 0x0 0x0 0x0 0x0 0x0 0x0 0x0 0x0 0x0 0x0 0x0 0x0 0x0 0x0 0x0 0x0 0x0 0x0 0x0 0x0 0x0 0x0 0xbe 0x0 0x0 0x0 0x0 0x0 0x0 0x0 0x0 0x0 0x0 0x0 0x0 0x0 0x0 0x0 0x0 0x0 0x0 0x0 0x0 0x0 0x0 0x0 ]
            872   1    L1CacheData_from_Dir_No_Acks  IM_AD>M      [0x2ec0, line 0x2ec0] 
    872: system.l1_cntrl1: MSI-cache.sm:344: L1 - mandatoryQueue_in request of type ST for address [0x4c0, line 0x4c0] - No replacement necessary
            872   1    L1Cache               Store      I>IM_AD  [0x4c0, line 0x4c0] 
    876: system.l1_cntrl1: MSI-cache.sm:294: L1 - responseNetwork_in port: DATA_FROM_DIR_NO_ACKS reply for address [0x57c0, line 0x57c0]
    876: system.l1_cntrl1: MSI-cache.sm:549: [ 0x0 0x0 0x0 0x0 0x0 0x0 0x0 0x0 0x0 0x0 0x0 0x0 0x0 0x0 0x0 0x0 0x0 0x0 0x0 0x0 0x0 0x0 0x0 0x0 0x0 0x0 0x0 0x0 0x0 0x0 0x0 0x0 0x0 0x0 0x0 0x0 0x0 0x0 0x0 0x0 0x0 0x0 0x0 0x0 0x0 0x0 0x0 0x0 0x0 0x0 0x0 0x0 0x0 0x0 0x0 0x0 0x0 0x0 0x0 0x0 0x0 0x0 0x0 0x0 ]
            876   1        Seq                Done       >       [0x57e8, line 0x57c0] 825 cycles
    876: system.l1_cntrl1: MSI-cache.sm:553: light6 address=[0x57c0, line 0x57c0] data=[ 0x0 0x0 0x0 0x0 0x0 0x0 0x0 0x0 0x0 0x0 0x0 0x0 0x0 0x0 0x0 0x0 0x0 0x0 0x0 0x0 0x0 0x0 0x0 0x0 0x0 0x0 0x0 0x0 0x0 0x0 0x0 0x0 0x0 0x0 0x0 0x0 0x0 0x0 0x0 0x0 0x41 0x0 0x0 0x0 0x0 0x0 0x0 0x0 0x0 0x0 0x0 0x0 0x0 0x0 0x0 0x0 0x0 0x0 0x0 0x0 0x0 0x0 0x0 0x0 ]
            876   1    L1CacheData_from_Dir_No_Acks  IM_AD>M      [0x57c0, line 0x57c0] 
    882: system.dir_cntrl0: MSI-dir.sm:265: Directory - memQueue_in port: MEMORY_READ for address [0x61c0, line 0x61c0] from  machine L1Cache-1
    882: system.dir_cntrl0: MSI-dir.sm:512: Directory - Popping Request from memQueue
            882   0  Directory         Memory_Data   IM_D>M      [0x61c0, line 0x61c0] 
    887: system.l1_cntrl0: MSI-cache.sm:344: L1 - mandatoryQueue_in request of type ST for address [0x39c0, line 0x39c0] - No replacement necessary
            887   0    L1Cache               Store      I>IM_AD  [0x39c0, line 0x39c0] 
            891   1        Seq               Begin       >       [0x2fe8, line 0x2fc0] ST
    892: system.l1_cntrl1: MSI-cache.sm:344: L1 - mandatoryQueue_in request of type ST for address [0x2fc0, line 0x2fc0] - No replacement necessary
            892   1    L1Cache               Store      I>IM_AD  [0x2fc0, line 0x2fc0] 
            901   1        Seq               Begin       >       [0x1dec, line 0x1dc0] ST
    902: system.dir_cntrl0: MSI-dir.sm:265: Directory - memQueue_in port: MEMORY_READ for address [0x400, line 0x400] from  machine L1Cache-1
    902: system.dir_cntrl0: MSI-dir.sm:512: Directory - Popping Request from memQueue
            902   0  Directory         Memory_Data   IM_D>M      [0x400, line 0x400] 
    905: system.l1_cntrl1: MSI-cache.sm:344: L1 - mandatoryQueue_in request of type ST for address [0x1dc0, line 0x1dc0] - No replacement necessary
            905   1    L1Cache               Store      I>IM_AD  [0x1dc0, line 0x1dc0] 
            921   1        Seq               Begin       >       [0x4eec, line 0x4ec0] ST
    924: system.l1_cntrl1: MSI-cache.sm:344: L1 - mandatoryQueue_in request of type ST for address [0x4ec0, line 0x4ec0] - No replacement necessary
            924   1    L1Cache               Store      I>IM_AD  [0x4ec0, line 0x4ec0] 
    945: system.dir_cntrl0: MSI-dir.sm:226: Directory - requestQueue_in port: GETM request for address [0x5c0, line 0x5c0] from machine L1Cache-0
    945: system.dir_cntrl0: MSI-dir.sm:464: Directory - memQueue_out: send MEMORY_READ request for address [0x5c0, line 0x5c0] triggered from machine Directory-0
            945   0  Directory                GETM      I>IM_D   [0x5c0, line 0x5c0] 
    948: system.dir_cntrl0: MSI-dir.sm:226: Directory - requestQueue_in port: GETM request for address [0x3bc0, line 0x3bc0] from machine L1Cache-0
    948: system.dir_cntrl0: MSI-dir.sm:464: Directory - memQueue_out: send MEMORY_READ request for address [0x3bc0, line 0x3bc0] triggered from machine Directory-0
            948   0  Directory                GETM      I>IM_D   [0x3bc0, line 0x3bc0] 
    962: system.dir_cntrl0: MSI-dir.sm:265: Directory - memQueue_in port: MEMORY_READ for address [0x62c0, line 0x62c0] from  machine L1Cache-1
    962: system.dir_cntrl0: MSI-dir.sm:512: Directory - Popping Request from memQueue
            962   0  Directory         Memory_Data   IM_D>M      [0x62c0, line 0x62c0] 
    982: system.l1_cntrl1: MSI-cache.sm:294: L1 - responseNetwork_in port: DATA_FROM_DIR_NO_ACKS reply for address [0x2ac0, line 0x2ac0]
    982: system.l1_cntrl1: MSI-cache.sm:549: [ 0x0 0x0 0x0 0x0 0x0 0x0 0x0 0x0 0x0 0x0 0x0 0x0 0x0 0x0 0x0 0x0 0x0 0x0 0x0 0x0 0x0 0x0 0x0 0x0 0x0 0x0 0x0 0x0 0x0 0x0 0x0 0x0 0x0 0x0 0x0 0x0 0x0 0x0 0x0 0x0 0x0 0x0 0x0 0x0 0x0 0x0 0x0 0x0 0x0 0x0 0x0 0x0 0x0 0x0 0x0 0x0 0x0 0x0 0x0 0x0 0x0 0x0 0x0 0x0 ]
            982   1        Seq                Done       >       [0x2ae8, line 0x2ac0] 891 cycles
    982: system.l1_cntrl1: MSI-cache.sm:553: light6 address=[0x2ac0, line 0x2ac0] data=[ 0x0 0x0 0x0 0x0 0x0 0x0 0x0 0x0 0x0 0x0 0x0 0x0 0x0 0x0 0x0 0x0 0x0 0x0 0x0 0x0 0x0 0x0 0x0 0x0 0x0 0x0 0x0 0x0 0x0 0x0 0x0 0x0 0x0 0x0 0x0 0x0 0x0 0x0 0x0 0x0 0x1d 0x0 0x0 0x0 0x0 0x0 0x0 0x0 0x0 0x0 0x0 0x0 0x0 0x0 0x0 0x0 0x0 0x0 0x0 0x0 0x0 0x0 0x0 0x0 ]
            982   1    L1CacheData_from_Dir_No_Acks  IM_AD>M      [0x2ac0, line 0x2ac0] 
            991   1        Seq               Begin       >       [0x3ae9, line 0x3ac0] ST
    992: system.dir_cntrl0: MSI-dir.sm:265: Directory - memQueue_in port: MEMORY_READ for address [0x2bc0, line 0x2bc0] from  machine L1Cache-1
    992: system.dir_cntrl0: MSI-dir.sm:512: Directory - Popping Request from memQueue
            992   0  Directory         Memory_Data   IM_D>M      [0x2bc0, line 0x2bc0] 
    995: system.l1_cntrl1: MSI-cache.sm:344: L1 - mandatoryQueue_in request of type ST for address [0x3ac0, line 0x3ac0] - No replacement necessary
            995   1    L1Cache               Store      I>IM_AD  [0x3ac0, line 0x3ac0] 
   1022: system.dir_cntrl0: MSI-dir.sm:265: Directory - memQueue_in port: MEMORY_READ for address [0x53c0, line 0x53c0] from  machine L1Cache-1
   1022: system.dir_cntrl0: MSI-dir.sm:512: Directory - Popping Request from memQueue
           1022   0  Directory         Memory_Data   IM_D>M      [0x53c0, line 0x53c0] 
   1052: system.dir_cntrl0: MSI-dir.sm:226: Directory - requestQueue_in port: GETM request for address [0x5fc0, line 0x5fc0] from machine L1Cache-0
   1052: system.dir_cntrl0: MSI-dir.sm:464: Directory - memQueue_out: send MEMORY_READ request for address [0x5fc0, line 0x5fc0] triggered from machine Directory-0
           1052   0  Directory                GETM      I>IM_D   [0x5fc0, line 0x5fc0] 
   1052: system.dir_cntrl0: MSI-dir.sm:265: Directory - memQueue_in port: MEMORY_READ for address [0x39c0, line 0x39c0] from  machine L1Cache-1
   1052: system.dir_cntrl0: MSI-dir.sm:512: Directory - Popping Request from memQueue
           1052   0  Directory         Memory_Data   IM_D>M      [0x39c0, line 0x39c0] 
   1054: system.dir_cntrl0: MSI-dir.sm:226: Directory - requestQueue_in port: GETM request for address [0x440, line 0x440] from machine L1Cache-1
   1054: system.dir_cntrl0: MSI-dir.sm:412: Directory - forwardNetwork_out: forwarding message type GETM for address [0x440, line 0x440]  from machine L1Cache-1 to machine [NetDest (2) 1 0  - 0  - ]
           1054   0  Directory                GETM      M>M      [0x440, line 0x440] Own: [NetDest (2) 1 0  - 0  - ]Req: L1Cache-1
   1072: system.l1_cntrl0: MSI-cache.sm:294: L1 - responseNetwork_in port: DATA_FROM_DIR_NO_ACKS reply for address [0x3ec0, line 0x3ec0]
   1072: system.l1_cntrl0: MSI-cache.sm:549: [ 0x0 0x0 0x0 0x0 0x0 0x0 0x0 0x0 0x0 0x0 0x0 0x0 0x0 0x0 0x0 0x0 0x0 0x0 0x0 0x0 0x0 0x0 0x0 0x0 0x0 0x0 0x0 0x0 0x0 0x0 0x0 0x0 0x0 0x0 0x0 0x0 0x0 0x0 0x0 0x0 0x0 0x0 0x0 0x0 0x0 0x0 0x0 0x0 0x0 0x0 0x0 0x0 0x0 0x0 0x0 0x0 0x0 0x0 0x0 0x0 0x0 0x0 0x0 0x0 ]
           1072   0        Seq                Done       >       [0x3eec, line 0x3ec0] 901 cycles
   1072: system.l1_cntrl0: MSI-cache.sm:553: light6 address=[0x3ec0, line 0x3ec0] data=[ 0x0 0x0 0x0 0x0 0x0 0x0 0x0 0x0 0x0 0x0 0x0 0x0 0x0 0x0 0x0 0x0 0x0 0x0 0x0 0x0 0x0 0x0 0x0 0x0 0x0 0x0 0x0 0x0 0x0 0x0 0x0 0x0 0x0 0x0 0x0 0x0 0x0 0x0 0x0 0x0 0x0 0x0 0x0 0x0 0x49 0x0 0x0 0x0 0x0 0x0 0x0 0x0 0x0 0x0 0x0 0x0 0x0 0x0 0x0 0x0 0x0 0x0 0x0 0x0 ]
           1072   0    L1CacheData_from_Dir_No_Acks  IM_AD>M      [0x3ec0, line 0x3ec0] 
           1081   0        Seq               Begin       >       [0x15e8, line 0x15c0] ST
   1082: system.dir_cntrl0: MSI-dir.sm:265: Directory - memQueue_in port: MEMORY_READ for address [0x5c0, line 0x5c0] from  machine L1Cache-0
   1082: system.dir_cntrl0: MSI-dir.sm:512: Directory - Popping Request from memQueue
           1082   0  Directory         Memory_Data   IM_D>M      [0x5c0, line 0x5c0] 
   1085: system.l1_cntrl0: MSI-cache.sm:344: L1 - mandatoryQueue_in request of type ST for address [0x15c0, line 0x15c0] - No replacement necessary
           1085   0    L1Cache               Store      I>IM_AD  [0x15c0, line 0x15c0] 
   1088: system.l1_cntrl0: MSI-cache.sm:294: L1 - responseNetwork_in port: DATA_FROM_DIR_NO_ACKS reply for address [0x4bc0, line 0x4bc0]
   1088: system.l1_cntrl0: MSI-cache.sm:549: [ 0x0 0x0 0x0 0x0 0x0 0x0 0x0 0x0 0x0 0x0 0x0 0x0 0x0 0x0 0x0 0x0 0x0 0x0 0x0 0x0 0x0 0x0 0x0 0x0 0x0 0x0 0x0 0x0 0x0 0x0 0x0 0x0 0x0 0x0 0x0 0x0 0x0 0x0 0x0 0x0 0x0 0x0 0x0 0x0 0x0 0x0 0x0 0x0 0x0 0x0 0x0 0x0 0x0 0x0 0x0 0x0 0x0 0x0 0x0 0x0 0x0 0x0 0x0 0x0 ]
           1088   0        Seq                Done       >       [0x4be8, line 0x4bc0] 1007 cycles
   1088: system.l1_cntrl0: MSI-cache.sm:553: light6 address=[0x4bc0, line 0x4bc0] data=[ 0x0 0x0 0x0 0x0 0x0 0x0 0x0 0x0 0x0 0x0 0x0 0x0 0x0 0x0 0x0 0x0 0x0 0x0 0x0 0x0 0x0 0x0 0x0 0x0 0x0 0x0 0x0 0x0 0x0 0x0 0x0 0x0 0x0 0x0 0x0 0x0 0x0 0x0 0x0 0x0 0x58 0x0 0x0 0x0 0x0 0x0 0x0 0x0 0x0 0x0 0x0 0x0 0x0 0x0 0x0 0x0 0x0 0x0 0x0 0x0 0x0 0x0 0x0 0x0 ]
           1088   0    L1CacheData_from_Dir_No_Acks  IM_AD>M      [0x4bc0, line 0x4bc0] 
   1089: system.l1_cntrl1: MSI-cache.sm:294: L1 - responseNetwork_in port: DATA_FROM_DIR_NO_ACKS reply for address [0x40c0, line 0x40c0]
   1089: system.l1_cntrl1: MSI-cache.sm:549: [ 0x0 0x0 0x0 0x0 0x0 0x0 0x0 0x0 0x0 0x0 0x0 0x0 0x0 0x0 0x0 0x0 0x0 0x0 0x0 0x0 0x0 0x0 0x0 0x0 0x0 0x0 0x0 0x0 0x0 0x0 0x0 0x0 0x0 0x0 0x0 0x0 0x0 0x0 0x0 0x0 0x0 0x0 0x0 0x0 0x0 0x0 0x0 0x0 0x0 0x0 0x0 0x0 0x0 0x0 0x0 0x0 0x0 0x0 0x0 0x0 0x0 0x0 0x0 0x0 ]
           1089   1        Seq                Done       >       [0x40e8, line 0x40c0] 968 cycles
   1089: system.l1_cntrl1: MSI-cache.sm:553: light6 address=[0x40c0, line 0x40c0] data=[ 0x0 0x0 0x0 0x0 0x0 0x0 0x0 0x0 0x0 0x0 0x0 0x0 0x0 0x0 0x0 0x0 0x0 0x0 0x0 0x0 0x0 0x0 0x0 0x0 0x0 0x0 0x0 0x0 0x0 0x0 0x0 0x0 0x0 0x0 0x0 0x0 0x0 0x0 0x0 0x0 0x80 0x0 0x0 0x0 0x0 0x0 0x0 0x0 0x0 0x0 0x0 0x0 0x0 0x0 0x0 0x0 0x0 0x0 0x0 0x0 0x0 0x0 0x0 0x0 ]
           1089   1    L1CacheData_from_Dir_No_Acks  IM_AD>M      [0x40c0, line 0x40c0] 
           1091   0        Seq               Begin       >       [0x2aec, line 0x2ac0] ST
   1095: system.l1_cntrl1: MSI-cache.sm:294: L1 - responseNetwork_in port: DATA_FROM_DIR_NO_ACKS reply for address [0x61c0, line 0x61c0]
   1095: system.l1_cntrl1: MSI-cache.sm:549: [ 0x0 0x0 0x0 0x0 0x0 0x0 0x0 0x0 0x0 0x0 0x0 0x0 0x0 0x0 0x0 0x0 0x0 0x0 0x0 0x0 0x0 0x0 0x0 0x0 0x0 0x0 0x0 0x0 0x0 0x0 0x0 0x0 0x0 0x0 0x0 0x0 0x0 0x0 0x0 0x0 0x0 0x0 0x0 0x0 0x0 0x0 0x0 0x0 0x0 0x0 0x0 0x0 0x0 0x0 0x0 0x0 0x0 0x0 0x0 0x0 0x0 0x0 0x0 0x0 ]
           1095   1        Seq                Done       >       [0x61e8, line 0x61c0] 944 cycles
   1095: system.l1_cntrl1: MSI-cache.sm:553: light6 address=[0x61c0, line 0x61c0] data=[ 0x0 0x0 0x0 0x0 0x0 0x0 0x0 0x0 0x0 0x0 0x0 0x0 0x0 0x0 0x0 0x0 0x0 0x0 0x0 0x0 0x0 0x0 0x0 0x0 0x0 0x0 0x0 0x0 0x0 0x0 0x0 0x0 0x0 0x0 0x0 0x0 0x0 0x0 0x0 0x0 0x42 0x0 0x0 0x0 0x0 0x0 0x0 0x0 0x0 0x0 0x0 0x0 0x0 0x0 0x0 0x0 0x0 0x0 0x0 0x0 0x0 0x0 0x0 0x0 ]
           1095   1    L1CacheData_from_Dir_No_Acks  IM_AD>M      [0x61c0, line 0x61c0] 
   1095: system.l1_cntrl0: MSI-cache.sm:344: L1 - mandatoryQueue_in request of type ST for address [0x2ac0, line 0x2ac0] - No replacement necessary
           1095   0    L1Cache               Store      I>IM_AD  [0x2ac0, line 0x2ac0] 
   1101: system.l1_cntrl1: MSI-cache.sm:294: L1 - responseNetwork_in port: DATA_FROM_DIR_NO_ACKS reply for address [0x400, line 0x400]
   1101: system.l1_cntrl1: MSI-cache.sm:549: [ 0x0 0x0 0x0 0x0 0x0 0x0 0x0 0x0 0x0 0x0 0x0 0x0 0x0 0x0 0x0 0x0 0x0 0x0 0x0 0x0 0x0 0x0 0x0 0x0 0x0 0x0 0x0 0x0 0x0 0x0 0x0 0x0 0x0 0x0 0x0 0x0 0x0 0x0 0x0 0x0 0x0 0x0 0x0 0x0 0x0 0x0 0x0 0x0 0x0 0x0 0x0 0x0 0x0 0x0 0x0 0x0 0x0 0x0 0x0 0x0 0x0 0x0 0x0 0x0 ]
           1101   1        Seq                Done       >       [0x418, line 0x400] 960 cycles
   1101: system.l1_cntrl1: MSI-cache.sm:553: light6 address=[0x400, line 0x400] data=[ 0x0 0x0 0x0 0x0 0x0 0x0 0x0 0x0 0x0 0x0 0x0 0x0 0x0 0x0 0x0 0x0 0x0 0x0 0x0 0x0 0x0 0x0 0x0 0x0 0x4e 0x0 0x0 0x0 0x0 0x0 0x0 0x0 0x0 0x0 0x0 0x0 0x0 0x0 0x0 0x0 0x0 0x0 0x0 0x0 0x0 0x0 0x0 0x0 0x0 0x0 0x0 0x0 0x0 0x0 0x0 0x0 0x0 0x0 0x0 0x0 0x0 0x0 0x0 0x0 ]
           1101   1    L1CacheData_from_Dir_No_Acks  IM_AD>M      [0x400, line 0x400] 
   1103: system.l1_cntrl1: MSI-cache.sm:294: L1 - responseNetwork_in port: DATA_FROM_DIR_NO_ACKS reply for address [0x62c0, line 0x62c0]
   1103: system.l1_cntrl1: MSI-cache.sm:549: [ 0x0 0x0 0x0 0x0 0x0 0x0 0x0 0x0 0x0 0x0 0x0 0x0 0x0 0x0 0x0 0x0 0x0 0x0 0x0 0x0 0x0 0x0 0x0 0x0 0x0 0x0 0x0 0x0 0x0 0x0 0x0 0x0 0x0 0x0 0x0 0x0 0x0 0x0 0x0 0x0 0x0 0x0 0x0 0x0 0x0 0x0 0x0 0x0 0x0 0x0 0x0 0x0 0x0 0x0 0x0 0x0 0x0 0x0 0x0 0x0 0x0 0x0 0x0 0x0 ]
           1103   1        Seq                Done       >       [0x62ec, line 0x62c0] 902 cycles
   1103: system.l1_cntrl1: MSI-cache.sm:553: light6 address=[0x62c0, line 0x62c0] data=[ 0x0 0x0 0x0 0x0 0x0 0x0 0x0 0x0 0x0 0x0 0x0 0x0 0x0 0x0 0x0 0x0 0x0 0x0 0x0 0x0 0x0 0x0 0x0 0x0 0x0 0x0 0x0 0x0 0x0 0x0 0x0 0x0 0x0 0x0 0x0 0x0 0x0 0x0 0x0 0x0 0x0 0x0 0x0 0x0 0x8a 0x0 0x0 0x0 0x0 0x0 0x0 0x0 0x0 0x0 0x0 0x0 0x0 0x0 0x0 0x0 0x0 0x0 0x0 0x0 ]
           1103   1    L1CacheData_from_Dir_No_Acks  IM_AD>M      [0x62c0, line 0x62c0] 
           1121   1        Seq               Begin       >       [0x1fe8, line 0x1fc0] ST
   1122: system.dir_cntrl0: MSI-dir.sm:265: Directory - memQueue_in port: MEMORY_READ for address [0x3bc0, line 0x3bc0] from  machine L1Cache-0
   1122: system.dir_cntrl0: MSI-dir.sm:512: Directory - Popping Request from memQueue
           1122   0  Directory         Memory_Data   IM_D>M      [0x3bc0, line 0x3bc0] 
           1131   1        Seq               Begin       >       [0xfe8, line 0xfc0] ST
   1133: system.l1_cntrl1: MSI-cache.sm:344: L1 - mandatoryQueue_in request of type ST for address [0xfc0, line 0xfc0] - No replacement necessary
           1133   1    L1Cache               Store      I>IM_AD  [0xfc0, line 0xfc0] 
           1161   1        Seq               Begin       >       [0x45ec, line 0x45c0] ST
   1164: system.l1_cntrl1: MSI-cache.sm:344: L1 - mandatoryQueue_in request of type ST for address [0x45c0, line 0x45c0] - No replacement necessary
           1164   1    L1Cache               Store      I>IM_AD  [0x45c0, line 0x45c0] 
   1167: system.dir_cntrl0: MSI-dir.sm:226: Directory - requestQueue_in port: GETM request for address [0x41c0, line 0x41c0] from machine L1Cache-1
   1167: system.dir_cntrl0: MSI-dir.sm:464: Directory - memQueue_out: send MEMORY_READ request for address [0x41c0, line 0x41c0] triggered from machine Directory-0
           1167   0  Directory                GETM      I>IM_D   [0x41c0, line 0x41c0] 
           1171   1        Seq               Begin       >       [0x30e8, line 0x30c0] ST
   1192: system.dir_cntrl0: MSI-dir.sm:265: Directory - memQueue_in port: MEMORY_READ for address [0x5fc0, line 0x5fc0] from  machine L1Cache-0
   1192: system.dir_cntrl0: MSI-dir.sm:512: Directory - Popping Request from memQueue
           1192   0  Directory         Memory_Data   IM_D>M      [0x5fc0, line 0x5fc0] 
   1214: system.l1_cntrl1: MSI-cache.sm:294: L1 - responseNetwork_in port: DATA_FROM_DIR_NO_ACKS reply for address [0x2bc0, line 0x2bc0]
   1214: system.l1_cntrl1: MSI-cache.sm:549: [ 0x0 0x0 0x0 0x0 0x0 0x0 0x0 0x0 0x0 0x0 0x0 0x0 0x0 0x0 0x0 0x0 0x0 0x0 0x0 0x0 0x0 0x0 0x0 0x0 0x0 0x0 0x0 0x0 0x0 0x0 0x0 0x0 0x0 0x0 0x0 0x0 0x0 0x0 0x0 0x0 0x0 0x0 0x0 0x0 0x0 0x0 0x0 0x0 0x0 0x0 0x0 0x0 0x0 0x0 0x0 0x0 0x0 0x0 0x0 0x0 0x0 0x0 0x0 0x0 ]
           1214   1        Seq                Done       >       [0x2bec, line 0x2bc0] 1023 cycles
   1214: system.l1_cntrl1: MSI-cache.sm:553: light6 address=[0x2bc0, line 0x2bc0] data=[ 0x0 0x0 0x0 0x0 0x0 0x0 0x0 0x0 0x0 0x0 0x0 0x0 0x0 0x0 0x0 0x0 0x0 0x0 0x0 0x0 0x0 0x0 0x0 0x0 0x0 0x0 0x0 0x0 0x0 0x0 0x0 0x0 0x0 0x0 0x0 0x0 0x0 0x0 0x0 0x0 0x0 0x0 0x0 0x0 0xa7 0x0 0x0 0x0 0x0 0x0 0x0 0x0 0x0 0x0 0x0 0x0 0x0 0x0 0x0 0x0 0x0 0x0 0x0 0x0 ]
           1214   1    L1CacheData_from_Dir_No_Acks  IM_AD>M      [0x2bc0, line 0x2bc0] 
   1216: system.l1_cntrl1: MSI-cache.sm:294: L1 - responseNetwork_in port: DATA_FROM_DIR_NO_ACKS reply for address [0x53c0, line 0x53c0]
   1216: system.l1_cntrl1: MSI-cache.sm:549: [ 0x0 0x0 0x0 0x0 0x0 0x0 0x0 0x0 0x0 0x0 0x0 0x0 0x0 0x0 0x0 0x0 0x0 0x0 0x0 0x0 0x0 0x0 0x0 0x0 0x0 0x0 0x0 0x0 0x0 0x0 0x0 0x0 0x0 0x0 0x0 0x0 0x0 0x0 0x0 0x0 0x0 0x0 0x0 0x0 0x0 0x0 0x0 0x0 0x0 0x0 0x0 0x0 0x0 0x0 0x0 0x0 0x0 0x0 0x0 0x0 0x0 0x0 0x0 0x0 ]
           1216   1        Seq                Done       >       [0x53e8, line 0x53c0] 1115 cycles
   1216: system.l1_cntrl1: MSI-cache.sm:553: light6 address=[0x53c0, line 0x53c0] data=[ 0x0 0x0 0x0 0x0 0x0 0x0 0x0 0x0 0x0 0x0 0x0 0x0 0x0 0x0 0x0 0x0 0x0 0x0 0x0 0x0 0x0 0x0 0x0 0x0 0x0 0x0 0x0 0x0 0x0 0x0 0x0 0x0 0x0 0x0 0x0 0x0 0x0 0x0 0x0 0x0 0x5 0x0 0x0 0x0 0x0 0x0 0x0 0x0 0x0 0x0 0x0 0x0 0x0 0x0 0x0 0x0 0x0 0x0 0x0 0x0 0x0 0x0 0x0 0x0 ]
           1216   1    L1CacheData_from_Dir_No_Acks  IM_AD>M      [0x53c0, line 0x53c0] 
           1221   1        Seq               Begin       >       [0x29e8, line 0x29c0] ST
   1222: system.l1_cntrl1: MSI-cache.sm:344: L1 - mandatoryQueue_in request of type ST for address [0x29c0, line 0x29c0] - No replacement necessary
           1222   1    L1Cache               Store      I>IM_AD  [0x29c0, line 0x29c0] 
   1236: system.l1_cntrl1: MSI-cache.sm:344: L1 - mandatoryQueue_in request of type ST for address [0x1fc0, line 0x1fc0] - No replacement necessary
           1236   1    L1Cache               Store      I>IM_AD  [0x1fc0, line 0x1fc0] 
           1261   1        Seq               Begin       >       [0x3f0, line 0x3c0] ST
   1264: system.l1_cntrl1: MSI-cache.sm:344: L1 - mandatoryQueue_in request of type ST for address [0x3c0, line 0x3c0] - No replacement necessary
           1264   1    L1Cache               Store      I>IM_AD  [0x3c0, line 0x3c0] 
   1271: system.dir_cntrl0: MSI-dir.sm:226: Directory - requestQueue_in port: GETM request for address [0x5dc0, line 0x5dc0] from machine L1Cache-1
   1271: system.dir_cntrl0: MSI-dir.sm:464: Directory - memQueue_out: send MEMORY_READ request for address [0x5dc0, line 0x5dc0] triggered from machine Directory-0
           1271   0  Directory                GETM      I>IM_D   [0x5dc0, line 0x5dc0] 
   1283: system.l1_cntrl0: MSI-cache.sm:259: L1 - forwardRequestNetwork_in port: GETM request for address [0x440, line 0x440]
   1283: system.l1_cntrl0: MSI-cache.sm:583: forward_eviction to cpu; send_evictions is 0
           1283   0    L1Cache            Fwd_GetM      M>I      [0x440, line 0x440] 
   1286: system.l1_cntrl1: MSI-cache.sm:344: L1 - mandatoryQueue_in request of type ST for address [0x30c0, line 0x30c0] - No replacement necessary
           1286   1    L1Cache               Store      I>IM_AD  [0x30c0, line 0x30c0] 
   1302: system.dir_cntrl0: MSI-dir.sm:265: Directory - memQueue_in port: MEMORY_READ for address [0x41c0, line 0x41c0] from  machine L1Cache-1
   1302: system.dir_cntrl0: MSI-dir.sm:512: Directory - Popping Request from memQueue
           1302   0  Directory         Memory_Data   IM_D>M      [0x41c0, line 0x41c0] 
   1317: system.l1_cntrl0: MSI-cache.sm:294: L1 - responseNetwork_in port: DATA_FROM_DIR_NO_ACKS reply for address [0x5c0, line 0x5c0]
   1317: system.l1_cntrl0: MSI-cache.sm:549: [ 0x0 0x0 0x0 0x0 0x0 0x0 0x0 0x0 0x0 0x0 0x0 0x0 0x0 0x0 0x0 0x0 0x0 0x0 0x0 0x0 0x0 0x0 0x0 0x0 0x0 0x0 0x0 0x0 0x0 0x0 0x0 0x0 0x0 0x0 0x0 0x0 0x0 0x0 0x0 0x0 0x0 0x0 0x0 0x0 0x0 0x0 0x0 0x0 0x0 0x0 0x0 0x0 0x0 0x0 0x0 0x0 0x0 0x0 0x0 0x0 0x0 0x0 0x0 0x0 ]
           1317   0        Seq                Done       >       [0x5ec, line 0x5c0] 1096 cycles
   1317: system.l1_cntrl0: MSI-cache.sm:553: light6 address=[0x5c0, line 0x5c0] data=[ 0x0 0x0 0x0 0x0 0x0 0x0 0x0 0x0 0x0 0x0 0x0 0x0 0x0 0x0 0x0 0x0 0x0 0x0 0x0 0x0 0x0 0x0 0x0 0x0 0x0 0x0 0x0 0x0 0x0 0x0 0x0 0x0 0x0 0x0 0x0 0x0 0x0 0x0 0x0 0x0 0x0 0x0 0x0 0x0 0x89 0x0 0x0 0x0 0x0 0x0 0x0 0x0 0x0 0x0 0x0 0x0 0x0 0x0 0x0 0x0 0x0 0x0 0x0 0x0 ]
           1317   0    L1CacheData_from_Dir_No_Acks  IM_AD>M      [0x5c0, line 0x5c0] 
   1319: system.l1_cntrl0: MSI-cache.sm:294: L1 - responseNetwork_in port: DATA_FROM_DIR_NO_ACKS reply for address [0x3bc0, line 0x3bc0]
   1319: system.l1_cntrl0: MSI-cache.sm:549: [ 0x0 0x0 0x0 0x0 0x0 0x0 0x0 0x0 0x0 0x0 0x0 0x0 0x0 0x0 0x0 0x0 0x0 0x0 0x0 0x0 0x0 0x0 0x0 0x0 0x0 0x0 0x0 0x0 0x0 0x0 0x0 0x0 0x0 0x0 0x0 0x0 0x0 0x0 0x0 0x0 0x0 0x0 0x0 0x0 0x0 0x0 0x0 0x0 0x0 0x0 0x0 0x0 0x0 0x0 0x0 0x0 0x0 0x0 0x0 0x0 0x0 0x0 0x0 0x0 ]
           1319   0        Seq                Done       >       [0x3be8, line 0x3bc0] 1088 cycles
   1319: system.l1_cntrl0: MSI-cache.sm:553: light6 address=[0x3bc0, line 0x3bc0] data=[ 0x0 0x0 0x0 0x0 0x0 0x0 0x0 0x0 0x0 0x0 0x0 0x0 0x0 0x0 0x0 0x0 0x0 0x0 0x0 0x0 0x0 0x0 0x0 0x0 0x0 0x0 0x0 0x0 0x0 0x0 0x0 0x0 0x0 0x0 0x0 0x0 0x0 0x0 0x0 0x0 0x5b 0x0 0x0 0x0 0x0 0x0 0x0 0x0 0x0 0x0 0x0 0x0 0x0 0x0 0x0 0x0 0x0 0x0 0x0 0x0 0x0 0x0 0x0 0x0 ]
           1319   0    L1CacheData_from_Dir_No_Acks  IM_AD>M      [0x3bc0, line 0x3bc0] 
   1324: system.l1_cntrl0: MSI-cache.sm:294: L1 - responseNetwork_in port: DATA_FROM_DIR_NO_ACKS reply for address [0x5fc0, line 0x5fc0]
   1324: system.l1_cntrl0: MSI-cache.sm:549: [ 0x0 0x0 0x0 0x0 0x0 0x0 0x0 0x0 0x0 0x0 0x0 0x0 0x0 0x0 0x0 0x0 0x0 0x0 0x0 0x0 0x0 0x0 0x0 0x0 0x0 0x0 0x0 0x0 0x0 0x0 0x0 0x0 0x0 0x0 0x0 0x0 0x0 0x0 0x0 0x0 0x0 0x0 0x0 0x0 0x0 0x0 0x0 0x0 0x0 0x0 0x0 0x0 0x0 0x0 0x0 0x0 0x0 0x0 0x0 0x0 0x0 0x0 0x0 0x0 ]
           1324   0        Seq                Done       >       [0x5fe8, line 0x5fc0] 1073 cycles
   1324: system.l1_cntrl0: MSI-cache.sm:553: light6 address=[0x5fc0, line 0x5fc0] data=[ 0x0 0x0 0x0 0x0 0x0 0x0 0x0 0x0 0x0 0x0 0x0 0x0 0x0 0x0 0x0 0x0 0x0 0x0 0x0 0x0 0x0 0x0 0x0 0x0 0x0 0x0 0x0 0x0 0x0 0x0 0x0 0x0 0x0 0x0 0x0 0x0 0x0 0x0 0x0 0x0 0xb2 0x0 0x0 0x0 0x0 0x0 0x0 0x0 0x0 0x0 0x0 0x0 0x0 0x0 0x0 0x0 0x0 0x0 0x0 0x0 0x0 0x0 0x0 0x0 ]
           1324   0    L1CacheData_from_Dir_No_Acks  IM_AD>M      [0x5fc0, line 0x5fc0] 
   1330: system.l1_cntrl1: MSI-cache.sm:294: L1 - responseNetwork_in port: DATA_FROM_DIR_NO_ACKS reply for address [0x39c0, line 0x39c0]
   1330: system.l1_cntrl1: MSI-cache.sm:549: [ 0x0 0x0 0x0 0x0 0x0 0x0 0x0 0x0 0x0 0x0 0x0 0x0 0x0 0x0 0x0 0x0 0x0 0x0 0x0 0x0 0x0 0x0 0x0 0x0 0x0 0x0 0x0 0x0 0x0 0x0 0x0 0x0 0x0 0x0 0x0 0x0 0x0 0x0 0x0 0x0 0x0 0x0 0x0 0x0 0x0 0x0 0x0 0x0 0x0 0x0 0x0 0x0 0x0 0x0 0x0 0x0 0x0 0x0 0x0 0x0 0x0 0x0 0x0 0x0 ]
           1330   1        Seq                Done       >       [0x39ec, line 0x39c0] 1149 cycles
   1330: system.l1_cntrl1: MSI-cache.sm:553: light6 address=[0x39c0, line 0x39c0] data=[ 0x0 0x0 0x0 0x0 0x0 0x0 0x0 0x0 0x0 0x0 0x0 0x0 0x0 0x0 0x0 0x0 0x0 0x0 0x0 0x0 0x0 0x0 0x0 0x0 0x0 0x0 0x0 0x0 0x0 0x0 0x0 0x0 0x0 0x0 0x0 0x0 0x0 0x0 0x0 0x0 0x0 0x0 0x0 0x0 0x39 0x0 0x0 0x0 0x0 0x0 0x0 0x0 0x0 0x0 0x0 0x0 0x0 0x0 0x0 0x0 0x0 0x0 0x0 0x0 ]
           1330   1    L1CacheData_from_Dir_No_Acks  IM_AD>M      [0x39c0, line 0x39c0] 
           1331   0        Seq               Begin       >       [0xee9, line 0xec0] ST
   1335: system.l1_cntrl1: MSI-cache.sm:307: L1 - responseNetwork_in port: DATA_FROM_OWNER reply for address [0x440, line 0x440]
   1335: system.l1_cntrl1: MSI-cache.sm:549: [ 0x0 0x0 0x0 0x0 0x57 0x0 0x0 0x0 0x0 0x0 0x0 0x0 0x0 0x0 0x0 0x0 0x0 0x0 0x0 0x0 0x0 0x0 0x0 0x0 0x0 0x0 0x0 0x0 0x0 0x0 0x0 0x0 0x0 0x0 0x0 0x0 0x0 0x0 0x0 0x0 0x0 0x0 0x0 0x0 0x0 0x0 0x0 0x0 0x0 0x0 0x0 0x0 0x0 0x0 0x0 0x0 0x0 0x0 0x0 0x0 0x0 0x0 0x0 0x0 ]
           1335   1        Seq                Done       >       [0x45c, line 0x440] 1004 cycles
   1335: system.l1_cntrl1: MSI-cache.sm:553: light6 address=[0x440, line 0x440] data=[ 0x0 0x0 0x0 0x0 0x57 0x0 0x0 0x0 0x0 0x0 0x0 0x0 0x0 0x0 0x0 0x0 0x0 0x0 0x0 0x0 0x0 0x0 0x0 0x0 0x0 0x0 0x0 0x0 0x3a 0x0 0x0 0x0 0x0 0x0 0x0 0x0 0x0 0x0 0x0 0x0 0x0 0x0 0x0 0x0 0x0 0x0 0x0 0x0 0x0 0x0 0x0 0x0 0x0 0x0 0x0 0x0 0x0 0x0 0x0 0x0 0x0 0x0 0x0 0x0 ]
           1335   1    L1Cache     Data_from_Owner  IM_AD>M      [0x440, line 0x440] 
   1335: system.l1_cntrl0: MSI-cache.sm:344: L1 - mandatoryQueue_in request of type ST for address [0xec0, line 0xec0] - No replacement necessary
           1335   0    L1Cache               Store      I>IM_AD  [0xec0, line 0xec0] 
   1341: system.l1_cntrl1: MSI-cache.sm:294: L1 - responseNetwork_in port: DATA_FROM_DIR_NO_ACKS reply for address [0x41c0, line 0x41c0]
   1341: system.l1_cntrl1: MSI-cache.sm:549: [ 0x0 0x0 0x0 0x0 0x0 0x0 0x0 0x0 0x0 0x0 0x0 0x0 0x0 0x0 0x0 0x0 0x0 0x0 0x0 0x0 0x0 0x0 0x0 0x0 0x0 0x0 0x0 0x0 0x0 0x0 0x0 0x0 0x0 0x0 0x0 0x0 0x0 0x0 0x0 0x0 0x0 0x0 0x0 0x0 0x0 0x0 0x0 0x0 0x0 0x0 0x0 0x0 0x0 0x0 0x0 0x0 0x0 0x0 0x0 0x0 0x0 0x0 0x0 0x0 ]
           1341   1        Seq                Done       >       [0x41ec, line 0x41c0] 990 cycles
   1341: system.l1_cntrl1: MSI-cache.sm:553: light6 address=[0x41c0, line 0x41c0] data=[ 0x0 0x0 0x0 0x0 0x0 0x0 0x0 0x0 0x0 0x0 0x0 0x0 0x0 0x0 0x0 0x0 0x0 0x0 0x0 0x0 0x0 0x0 0x0 0x0 0x0 0x0 0x0 0x0 0x0 0x0 0x0 0x0 0x0 0x0 0x0 0x0 0x0 0x0 0x0 0x0 0x0 0x0 0x0 0x0 0x66 0x0 0x0 0x0 0x0 0x0 0x0 0x0 0x0 0x0 0x0 0x0 0x0 0x0 0x0 0x0 0x0 0x0 0x0 0x0 ]
           1341   1    L1CacheData_from_Dir_No_Acks  IM_AD>M      [0x41c0, line 0x41c0] 
           1341   0        Seq               Begin       >       [0x46e8, line 0x46c0] ST
   1345: system.l1_cntrl0: MSI-cache.sm:344: L1 - mandatoryQueue_in request of type ST for address [0x46c0, line 0x46c0] - No replacement necessary
           1345   0    L1Cache               Store      I>IM_AD  [0x46c0, line 0x46c0] 
           1351   1        Seq               Begin       >       [0x2be8, line 0x2bc0] ST
   1352: system.l1_cntrl1: MSI-cache.sm:344: L1 - mandatoryQueue_in request of type ST for address [0x2bc0, line 0x2bc0] - No replacement necessary
   1352: system.l1_cntrl1: MSI-cache.sm:537: [ 0x0 0x0 0x0 0x0 0x0 0x0 0x0 0x0 0x0 0x0 0x0 0x0 0x0 0x0 0x0 0x0 0x0 0x0 0x0 0x0 0x0 0x0 0x0 0x0 0x0 0x0 0x0 0x0 0x0 0x0 0x0 0x0 0x0 0x0 0x0 0x0 0x0 0x0 0x0 0x0 0x0 0x0 0x0 0x0 0xa7 0x0 0x0 0x0 0x0 0x0 0x0 0x0 0x0 0x0 0x0 0x0 0x0 0x0 0x0 0x0 0x0 0x0 0x0 0x0 ]
           1352   1        Seq                Done       >       [0x2be8, line 0x2bc0] 1 cycles
   1352: system.l1_cntrl1: MSI-cache.sm:541: light5 address=[0x2bc0, line 0x2bc0], data=[ 0x0 0x0 0x0 0x0 0x0 0x0 0x0 0x0 0x0 0x0 0x0 0x0 0x0 0x0 0x0 0x0 0x0 0x0 0x0 0x0 0x0 0x0 0x0 0x0 0x0 0x0 0x0 0x0 0x0 0x0 0x0 0x0 0x0 0x0 0x0 0x0 0x0 0x0 0x0 0x0 0xc7 0x0 0x0 0x0 0xa7 0x0 0x0 0x0 0x0 0x0 0x0 0x0 0x0 0x0 0x0 0x0 0x0 0x0 0x0 0x0 0x0 0x0 0x0 0x0 ]
           1352   1    L1Cache               Store      M>M      [0x2bc0, line 0x2bc0] 
           1361   0        Seq               Begin       >       [0x41ed, line 0x41c0] ST
   1363: system.l1_cntrl0: MSI-cache.sm:344: L1 - mandatoryQueue_in request of type ST for address [0x41c0, line 0x41c0] - No replacement necessary
           1363   0    L1Cache               Store      I>IM_AD  [0x41c0, line 0x41c0] 
           1371   1        Seq               Begin       >       [0x23ec, line 0x23c0] ST
           1381   1        Seq               Begin       >       [0x52e8, line 0x52c0] ST
   1382: system.l1_cntrl1: MSI-cache.sm:337: L1 - mandatoryQueue_in request for address [0x52c0, line 0x52c0] - Need to replace entry
   1382: system.l1_cntrl1: MSI-cache.sm:583: forward_eviction to cpu; send_evictions is 0
           1382   1    L1Cache         Replacement      M>MI_A   [0xec0, line 0xec0] 
   1382: system.dir_cntrl0: MSI-dir.sm:226: Directory - requestQueue_in port: GETM request for address [0x66c0, line 0x66c0] from machine L1Cache-1
   1382: system.dir_cntrl0: MSI-dir.sm:464: Directory - memQueue_out: send MEMORY_READ request for address [0x66c0, line 0x66c0] triggered from machine Directory-0
           1382   0  Directory                GETM      I>IM_D   [0x66c0, line 0x66c0] 
   1386: system.dir_cntrl0: MSI-dir.sm:226: Directory - requestQueue_in port: GETM request for address [0x40c0, line 0x40c0] from machine L1Cache-0
   1386: system.dir_cntrl0: MSI-dir.sm:412: Directory - forwardNetwork_out: forwarding message type GETM for address [0x40c0, line 0x40c0]  from machine L1Cache-0 to machine [NetDest (2) 0 1  - 0  - ]
           1386   0  Directory                GETM      M>M      [0x40c0, line 0x40c0] Own: [NetDest (2) 0 1  - 0  - ]Req: L1Cache-0
           1391   1        Seq               Begin       >       [0x4be9, line 0x4bc0] ST
   1392: system.l1_cntrl1: MSI-cache.sm:344: L1 - mandatoryQueue_in request of type ST for address [0x4bc0, line 0x4bc0] - No replacement necessary
           1392   1    L1Cache               Store      I>IM_AD  [0x4bc0, line 0x4bc0] 
   1401: system.l1_cntrl1: MSI-cache.sm:259: L1 - forwardRequestNetwork_in port: GETM request for address [0x40c0, line 0x40c0]
   1401: system.l1_cntrl1: MSI-cache.sm:583: forward_eviction to cpu; send_evictions is 0
           1401   1    L1Cache            Fwd_GetM      M>I      [0x40c0, line 0x40c0] 
   1402: system.dir_cntrl0: MSI-dir.sm:265: Directory - memQueue_in port: MEMORY_READ for address [0x5dc0, line 0x5dc0] from  machine L1Cache-1
   1402: system.dir_cntrl0: MSI-dir.sm:512: Directory - Popping Request from memQueue
           1402   0  Directory         Memory_Data   IM_D>M      [0x5dc0, line 0x5dc0] 
   1475: system.l1_cntrl1: MSI-cache.sm:337: L1 - mandatoryQueue_in request for address [0x23c0, line 0x23c0] - Need to replace entry
           1475   1    L1Cache         Replacement  IM_AD>IM_AD  [0x2fc0, line 0x2fc0] Protocol Stall
   1491: system.dir_cntrl0: MSI-dir.sm:226: Directory - requestQueue_in port: GETM request for address [0x400, line 0x400] from machine L1Cache-0
   1491: system.dir_cntrl0: MSI-dir.sm:412: Directory - forwardNetwork_out: forwarding message type GETM for address [0x400, line 0x400]  from machine L1Cache-0 to machine [NetDest (2) 0 1  - 0  - ]
           1491   0  Directory                GETM      M>M      [0x400, line 0x400] Own: [NetDest (2) 0 1  - 0  - ]Req: L1Cache-0
   1492: system.dir_cntrl0: MSI-dir.sm:226: Directory - requestQueue_in port: GETM request for address [0x59c0, line 0x59c0] from machine L1Cache-0
   1492: system.dir_cntrl0: MSI-dir.sm:464: Directory - memQueue_out: send MEMORY_READ request for address [0x59c0, line 0x59c0] triggered from machine Directory-0
           1492   0  Directory                GETM      I>IM_D   [0x59c0, line 0x59c0] 
   1495: system.dir_cntrl0: MSI-dir.sm:226: Directory - requestQueue_in port: GETM request for address [0x5ac0, line 0x5ac0] from machine L1Cache-0
   1495: system.dir_cntrl0: MSI-dir.sm:464: Directory - memQueue_out: send MEMORY_READ request for address [0x5ac0, line 0x5ac0] triggered from machine Directory-0
           1495   0  Directory                GETM      I>IM_D   [0x5ac0, line 0x5ac0] 
   1497: system.dir_cntrl0: MSI-dir.sm:226: Directory - requestQueue_in port: GETM request for address [0x64c0, line 0x64c0] from machine L1Cache-0
   1497: system.dir_cntrl0: MSI-dir.sm:464: Directory - memQueue_out: send MEMORY_READ request for address [0x64c0, line 0x64c0] triggered from machine Directory-0
           1497   0  Directory                GETM      I>IM_D   [0x64c0, line 0x64c0] 
   1498: system.dir_cntrl0: MSI-dir.sm:226: Directory - requestQueue_in port: GETM request for address [0x5ec0, line 0x5ec0] from machine L1Cache-0
   1498: system.dir_cntrl0: MSI-dir.sm:464: Directory - memQueue_out: send MEMORY_READ request for address [0x5ec0, line 0x5ec0] triggered from machine Directory-0
           1498   0  Directory                GETM      I>IM_D   [0x5ec0, line 0x5ec0] 
   1506: system.l1_cntrl1: MSI-cache.sm:259: L1 - forwardRequestNetwork_in port: GETM request for address [0x400, line 0x400]
   1506: system.l1_cntrl1: MSI-cache.sm:583: forward_eviction to cpu; send_evictions is 0
           1506   1    L1Cache            Fwd_GetM      M>I      [0x400, line 0x400] 
   1506: system.l1_cntrl1: MSI-cache.sm:337: L1 - mandatoryQueue_in request for address [0x23c0, line 0x23c0] - Need to replace entry
           1506   1    L1Cache         Replacement  IM_AD>IM_AD  [0x2fc0, line 0x2fc0] Protocol Stall
   1522: system.dir_cntrl0: MSI-dir.sm:265: Directory - memQueue_in port: MEMORY_READ for address [0x66c0, line 0x66c0] from  machine L1Cache-1
   1522: system.dir_cntrl0: MSI-dir.sm:512: Directory - Popping Request from memQueue
           1522   0  Directory         Memory_Data   IM_D>M      [0x66c0, line 0x66c0] 
   1529: system.l1_cntrl0: MSI-cache.sm:307: L1 - responseNetwork_in port: DATA_FROM_OWNER reply for address [0x40c0, line 0x40c0]
   1529: system.l1_cntrl0: MSI-cache.sm:549: [ 0x0 0x0 0x0 0x0 0x0 0x0 0x0 0x0 0x0 0x0 0x0 0x0 0x0 0x0 0x0 0x0 0x0 0x0 0x0 0x0 0x0 0x0 0x0 0x0 0x0 0x0 0x0 0x0 0x0 0x0 0x0 0x0 0x0 0x0 0x0 0x0 0x0 0x0 0x0 0x0 0x80 0x0 0x0 0x0 0x0 0x0 0x0 0x0 0x0 0x0 0x0 0x0 0x0 0x0 0x0 0x0 0x0 0x0 0x0 0x0 0x0 0x0 0x0 0x0 ]
           1529   0        Seq                Done       >       [0x40ec, line 0x40c0] 1248 cycles
   1529: system.l1_cntrl0: MSI-cache.sm:553: light6 address=[0x40c0, line 0x40c0] data=[ 0x0 0x0 0x0 0x0 0x0 0x0 0x0 0x0 0x0 0x0 0x0 0x0 0x0 0x0 0x0 0x0 0x0 0x0 0x0 0x0 0x0 0x0 0x0 0x0 0x0 0x0 0x0 0x0 0x0 0x0 0x0 0x0 0x0 0x0 0x0 0x0 0x0 0x0 0x0 0x0 0x80 0x0 0x0 0x0 0x75 0x0 0x0 0x0 0x0 0x0 0x0 0x0 0x0 0x0 0x0 0x0 0x0 0x0 0x0 0x0 0x0 0x0 0x0 0x0 ]
           1529   0    L1Cache     Data_from_Owner  IM_AD>M      [0x40c0, line 0x40c0] 
           1601   0        Seq               Begin       >       [0x65e8, line 0x65c0] ST
   1603: system.l1_cntrl0: MSI-cache.sm:344: L1 - mandatoryQueue_in request of type ST for address [0x65c0, line 0x65c0] - No replacement necessary
           1603   0    L1Cache               Store      I>IM_AD  [0x65c0, line 0x65c0] 
   1605: system.dir_cntrl0: MSI-dir.sm:226: Directory - requestQueue_in port: GETM request for address [0x11c0, line 0x11c0] from machine L1Cache-0
   1605: system.dir_cntrl0: MSI-dir.sm:464: Directory - memQueue_out: send MEMORY_READ request for address [0x11c0, line 0x11c0] triggered from machine Directory-0
           1605   0  Directory                GETM      I>IM_D   [0x11c0, line 0x11c0] 
   1607: system.dir_cntrl0: MSI-dir.sm:226: Directory - requestQueue_in port: GETM request for address [0x13c0, line 0x13c0] from machine L1Cache-0
   1607: system.dir_cntrl0: MSI-dir.sm:464: Directory - memQueue_out: send MEMORY_READ request for address [0x13c0, line 0x13c0] triggered from machine Directory-0
           1607   0  Directory                GETM      I>IM_D   [0x13c0, line 0x13c0] 
   1611: system.dir_cntrl0: MSI-dir.sm:226: Directory - requestQueue_in port: GETM request for address [0x2ec0, line 0x2ec0] from machine L1Cache-0
   1611: system.dir_cntrl0: MSI-dir.sm:412: Directory - forwardNetwork_out: forwarding message type GETM for address [0x2ec0, line 0x2ec0]  from machine L1Cache-0 to machine [NetDest (2) 0 1  - 0  - ]
           1611   0  Directory                GETM      M>M      [0x2ec0, line 0x2ec0] Own: [NetDest (2) 0 1  - 0  - ]Req: L1Cache-0
   1614: system.dir_cntrl0: MSI-dir.sm:226: Directory - requestQueue_in port: GETM request for address [0x4c0, line 0x4c0] from machine L1Cache-1
   1614: system.dir_cntrl0: MSI-dir.sm:464: Directory - memQueue_out: send MEMORY_READ request for address [0x4c0, line 0x4c0] triggered from machine Directory-0
           1614   0  Directory                GETM      I>IM_D   [0x4c0, line 0x4c0] 
   1615: system.dir_cntrl0: MSI-dir.sm:226: Directory - requestQueue_in port: GETM request for address [0x4c0, line 0x4c0] from machine L1Cache-0
           1615   0  Directory                GETM   IM_D>IM_D   [0x4c0, line 0x4c0] Protocol Stall
   1616: system.dir_cntrl0: MSI-dir.sm:226: Directory - requestQueue_in port: GETM request for address [0x4c0, line 0x4c0] from machine L1Cache-0
           1616   0  Directory                GETM   IM_D>IM_D   [0x4c0, line 0x4c0] Protocol Stall
   1619: system.dir_cntrl0: MSI-dir.sm:226: Directory - requestQueue_in port: GETM request for address [0x4c0, line 0x4c0] from machine L1Cache-0
           1619   0  Directory                GETM   IM_D>IM_D   [0x4c0, line 0x4c0] Protocol Stall
   1620: system.dir_cntrl0: MSI-dir.sm:226: Directory - requestQueue_in port: GETM request for address [0x4c0, line 0x4c0] from machine L1Cache-0
           1620   0  Directory                GETM   IM_D>IM_D   [0x4c0, line 0x4c0] Protocol Stall
   1621: system.dir_cntrl0: MSI-dir.sm:226: Directory - requestQueue_in port: GETM request for address [0x4c0, line 0x4c0] from machine L1Cache-0
           1621   0  Directory                GETM   IM_D>IM_D   [0x4c0, line 0x4c0] Protocol Stall
   1625: system.l1_cntrl1: MSI-cache.sm:259: L1 - forwardRequestNetwork_in port: GETM request for address [0x2ec0, line 0x2ec0]
   1625: system.l1_cntrl1: MSI-cache.sm:583: forward_eviction to cpu; send_evictions is 0
           1625   1    L1Cache            Fwd_GetM      M>I      [0x2ec0, line 0x2ec0] 
   1625: system.l1_cntrl1: MSI-cache.sm:337: L1 - mandatoryQueue_in request for address [0x23c0, line 0x23c0] - Need to replace entry
           1625   1    L1Cache         Replacement  IM_AD>IM_AD  [0x2fc0, line 0x2fc0] Protocol Stall
   1632: system.dir_cntrl0: MSI-dir.sm:226: Directory - requestQueue_in port: GETM request for address [0x4c0, line 0x4c0] from machine L1Cache-0
           1632   0  Directory                GETM   IM_D>IM_D   [0x4c0, line 0x4c0] Protocol Stall
   1632: system.dir_cntrl0: MSI-dir.sm:265: Directory - memQueue_in port: MEMORY_READ for address [0x59c0, line 0x59c0] from  machine L1Cache-0
   1632: system.dir_cntrl0: MSI-dir.sm:512: Directory - Popping Request from memQueue
           1632   0  Directory         Memory_Data   IM_D>M      [0x59c0, line 0x59c0] 
   1632: system.dir_cntrl0: MSI-dir.sm:226: Directory - requestQueue_in port: GETM request for address [0x4c0, line 0x4c0] from machine L1Cache-0
           1632   0  Directory                GETM   IM_D>IM_D   [0x4c0, line 0x4c0] Protocol Stall
   1633: system.l1_cntrl1: MSI-cache.sm:294: L1 - responseNetwork_in port: DATA_FROM_DIR_NO_ACKS reply for address [0x5dc0, line 0x5dc0]
   1633: system.l1_cntrl1: MSI-cache.sm:549: [ 0x0 0x0 0x0 0x0 0x0 0x0 0x0 0x0 0x0 0x0 0x0 0x0 0x0 0x0 0x0 0x0 0x0 0x0 0x0 0x0 0x0 0x0 0x0 0x0 0x0 0x0 0x0 0x0 0x0 0x0 0x0 0x0 0x0 0x0 0x0 0x0 0x0 0x0 0x0 0x0 0x0 0x0 0x0 0x0 0x0 0x0 0x0 0x0 0x0 0x0 0x0 0x0 0x0 0x0 0x0 0x0 0x0 0x0 0x0 0x0 0x0 0x0 0x0 0x0 ]
           1633   1        Seq                Done       >       [0x5dec, line 0x5dc0] 1362 cycles
   1633: system.l1_cntrl1: MSI-cache.sm:553: light6 address=[0x5dc0, line 0x5dc0] data=[ 0x0 0x0 0x0 0x0 0x0 0x0 0x0 0x0 0x0 0x0 0x0 0x0 0x0 0x0 0x0 0x0 0x0 0x0 0x0 0x0 0x0 0x0 0x0 0x0 0x0 0x0 0x0 0x0 0x0 0x0 0x0 0x0 0x0 0x0 0x0 0x0 0x0 0x0 0x0 0x0 0x0 0x0 0x0 0x0 0xa6 0x0 0x0 0x0 0x0 0x0 0x0 0x0 0x0 0x0 0x0 0x0 0x0 0x0 0x0 0x0 0x0 0x0 0x0 0x0 ]
           1633   1    L1CacheData_from_Dir_No_Acks  IM_AD>M      [0x5dc0, line 0x5dc0] 
   1633: system.l1_cntrl1: MSI-cache.sm:337: L1 - mandatoryQueue_in request for address [0x23c0, line 0x23c0] - Need to replace entry
           1633   1    L1Cache         Replacement  IM_AD>IM_AD  [0x2fc0, line 0x2fc0] Protocol Stall
           1651   1        Seq               Begin       >       [0x7e8, line 0x7c0] ST
   1652: system.dir_cntrl0: MSI-dir.sm:226: Directory - requestQueue_in port: GETM request for address [0x4c0, line 0x4c0] from machine L1Cache-0
           1652   0  Directory                GETM   IM_D>IM_D   [0x4c0, line 0x4c0] Protocol Stall
   1652: system.dir_cntrl0: MSI-dir.sm:265: Directory - memQueue_in port: MEMORY_READ for address [0x5ac0, line 0x5ac0] from  machine L1Cache-0
   1652: system.dir_cntrl0: MSI-dir.sm:512: Directory - Popping Request from memQueue
           1652   0  Directory         Memory_Data   IM_D>M      [0x5ac0, line 0x5ac0] 
   1652: system.dir_cntrl0: MSI-dir.sm:226: Directory - requestQueue_in port: GETM request for address [0x4c0, line 0x4c0] from machine L1Cache-0
           1652   0  Directory                GETM   IM_D>IM_D   [0x4c0, line 0x4c0] Protocol Stall
   1654: system.l1_cntrl1: MSI-cache.sm:337: L1 - mandatoryQueue_in request for address [0x23c0, line 0x23c0] - Need to replace entry
           1654   1    L1Cache         Replacement  IM_AD>IM_AD  [0x2fc0, line 0x2fc0] Protocol Stall
   1672: system.dir_cntrl0: MSI-dir.sm:226: Directory - requestQueue_in port: GETM request for address [0x4c0, line 0x4c0] from machine L1Cache-0
           1672   0  Directory                GETM   IM_D>IM_D   [0x4c0, line 0x4c0] Protocol Stall
   1672: system.dir_cntrl0: MSI-dir.sm:265: Directory - memQueue_in port: MEMORY_READ for address [0x5ec0, line 0x5ec0] from  machine L1Cache-0
   1672: system.dir_cntrl0: MSI-dir.sm:512: Directory - Popping Request from memQueue
           1672   0  Directory         Memory_Data   IM_D>M      [0x5ec0, line 0x5ec0] 
   1672: system.dir_cntrl0: MSI-dir.sm:226: Directory - requestQueue_in port: GETM request for address [0x4c0, line 0x4c0] from machine L1Cache-0
           1672   0  Directory                GETM   IM_D>IM_D   [0x4c0, line 0x4c0] Protocol Stall
   1702: system.dir_cntrl0: MSI-dir.sm:226: Directory - requestQueue_in port: GETM request for address [0x4c0, line 0x4c0] from machine L1Cache-0
           1702   0  Directory                GETM   IM_D>IM_D   [0x4c0, line 0x4c0] Protocol Stall
   1702: system.dir_cntrl0: MSI-dir.sm:265: Directory - memQueue_in port: MEMORY_READ for address [0x64c0, line 0x64c0] from  machine L1Cache-0
   1702: system.dir_cntrl0: MSI-dir.sm:512: Directory - Popping Request from memQueue
           1702   0  Directory         Memory_Data   IM_D>M      [0x64c0, line 0x64c0] 
   1702: system.dir_cntrl0: MSI-dir.sm:226: Directory - requestQueue_in port: GETM request for address [0x4c0, line 0x4c0] from machine L1Cache-0
           1702   0  Directory                GETM   IM_D>IM_D   [0x4c0, line 0x4c0] Protocol Stall
   1724: system.l1_cntrl0: MSI-cache.sm:307: L1 - responseNetwork_in port: DATA_FROM_OWNER reply for address [0x400, line 0x400]
   1724: system.l1_cntrl0: MSI-cache.sm:549: [ 0x0 0x0 0x0 0x0 0x0 0x0 0x0 0x0 0x0 0x0 0x0 0x0 0x0 0x0 0x0 0x0 0x0 0x0 0x0 0x0 0x0 0x0 0x0 0x0 0x4e 0x0 0x0 0x0 0x0 0x0 0x0 0x0 0x0 0x0 0x0 0x0 0x0 0x0 0x0 0x0 0x0 0x0 0x0 0x0 0x0 0x0 0x0 0x0 0x0 0x0 0x0 0x0 0x0 0x0 0x0 0x0 0x0 0x0 0x0 0x0 0x0 0x0 0x0 0x0 ]
           1724   0        Seq                Done       >       [0x438, line 0x400] 1433 cycles
   1724: system.l1_cntrl0: MSI-cache.sm:553: light6 address=[0x400, line 0x400] data=[ 0x0 0x0 0x0 0x0 0x0 0x0 0x0 0x0 0x0 0x0 0x0 0x0 0x0 0x0 0x0 0x0 0x0 0x0 0x0 0x0 0x0 0x0 0x0 0x0 0x4e 0x0 0x0 0x0 0x0 0x0 0x0 0x0 0x0 0x0 0x0 0x0 0x0 0x0 0x0 0x0 0x0 0x0 0x0 0x0 0x0 0x0 0x0 0x0 0x0 0x0 0x0 0x0 0x0 0x0 0x0 0x0 0xa3 0x0 0x0 0x0 0x0 0x0 0x0 0x0 ]
           1724   0    L1Cache     Data_from_Owner  IM_AD>M      [0x400, line 0x400] 
   1727: system.l1_cntrl0: MSI-cache.sm:307: L1 - responseNetwork_in port: DATA_FROM_OWNER reply for address [0x2ec0, line 0x2ec0]
   1727: system.l1_cntrl0: MSI-cache.sm:549: [ 0x0 0x0 0x0 0x0 0x0 0x0 0x0 0x0 0x0 0x0 0x0 0x0 0x0 0x0 0x0 0x0 0x0 0x0 0x0 0x0 0x0 0x0 0x0 0x0 0x0 0x0 0x0 0x0 0x0 0x0 0x0 0x0 0x0 0x0 0x0 0x0 0x0 0x0 0x0 0x0 0xbe 0x0 0x0 0x0 0x0 0x0 0x0 0x0 0x0 0x0 0x0 0x0 0x0 0x0 0x0 0x0 0x0 0x0 0x0 0x0 0x0 0x0 0x0 0x0 ]
           1727   0        Seq                Done       >       [0x2eec, line 0x2ec0] 1036 cycles
   1727: system.l1_cntrl0: MSI-cache.sm:553: light6 address=[0x2ec0, line 0x2ec0] data=[ 0x0 0x0 0x0 0x0 0x0 0x0 0x0 0x0 0x0 0x0 0x0 0x0 0x0 0x0 0x0 0x0 0x0 0x0 0x0 0x0 0x0 0x0 0x0 0x0 0x0 0x0 0x0 0x0 0x0 0x0 0x0 0x0 0x0 0x0 0x0 0x0 0x0 0x0 0x0 0x0 0xbe 0x0 0x0 0x0 0xbb 0x0 0x0 0x0 0x0 0x0 0x0 0x0 0x0 0x0 0x0 0x0 0x0 0x0 0x0 0x0 0x0 0x0 0x0 0x0 ]
           1727   0    L1Cache     Data_from_Owner  IM_AD>M      [0x2ec0, line 0x2ec0] 
   1732: system.dir_cntrl0: MSI-dir.sm:226: Directory - requestQueue_in port: GETM request for address [0x4c0, line 0x4c0] from machine L1Cache-0
           1732   0  Directory                GETM   IM_D>IM_D   [0x4c0, line 0x4c0] Protocol Stall
   1734: system.dir_cntrl0: MSI-dir.sm:226: Directory - requestQueue_in port: GETM request for address [0x4c0, line 0x4c0] from machine L1Cache-0
           1734   0  Directory                GETM   IM_D>IM_D   [0x4c0, line 0x4c0] Protocol Stall
   1738: system.dir_cntrl0: MSI-dir.sm:226: Directory - requestQueue_in port: GETM request for address [0x4c0, line 0x4c0] from machine L1Cache-0
[...]
   7234: system.l1_cntrl0: MSI-cache.sm:583: forward_eviction to cpu; send_evictions is 0
           7234   0    L1Cache         Replacement      M>MI_A   [0x5fc0, line 0x5fc0] 
   7252: system.dir_cntrl0: MSI-dir.sm:265: Directory - memQueue_in port: MEMORY_READ for address [0x2fc0, line 0x2fc0] from  machine L1Cache-1
   7252: system.dir_cntrl0: MSI-dir.sm:512: Directory - Popping Request from memQueue
           7252   0  Directory         Memory_Data   IM_D>M      [0x2fc0, line 0x2fc0] 
   7268: system.l1_cntrl1: MSI-cache.sm:294: L1 - responseNetwork_in port: DATA_FROM_DIR_NO_ACKS reply for address [0x2fc0, line 0x2fc0]
   7268: system.l1_cntrl1: MSI-cache.sm:549: [ 0x0 0x0 0x0 0x0 0x0 0x0 0x0 0x0 0x0 0x0 0x0 0x0 0x0 0x0 0x0 0x0 0x0 0x0 0x0 0x0 0x0 0x0 0x0 0x0 0x0 0x0 0x0 0x0 0x0 0x0 0x0 0x0 0x0 0x0 0x0 0x0 0x0 0x0 0x0 0x0 0x0 0x0 0x0 0x0 0x0 0x0 0x0 0x0 0x0 0x0 0x0 0x0 0x0 0x0 0x0 0x0 0x0 0x0 0x0 0x0 0x0 0x0 0x0 0x0 ]
           7268   1        Seq                Done       >       [0x2fe9, line 0x2fc0] 427 cycles
   7268: system.l1_cntrl1: MSI-cache.sm:553: light6 address=[0x2fc0, line 0x2fc0] data=[ 0x0 0x0 0x0 0x0 0x0 0x0 0x0 0x0 0x0 0x0 0x0 0x0 0x0 0x0 0x0 0x0 0x0 0x0 0x0 0x0 0x0 0x0 0x0 0x0 0x0 0x0 0x0 0x0 0x0 0x0 0x0 0x0 0x0 0x0 0x0 0x0 0x0 0x0 0x0 0x0 0x0 0xd5 0x0 0x0 0x0 0x0 0x0 0x0 0x0 0x0 0x0 0x0 0x0 0x0 0x0 0x0 0x0 0x0 0x0 0x0 0x0 0x0 0x0 0x0 ]
           7268   1    L1CacheData_from_Dir_No_Acks  IM_AD>M      [0x2fc0, line 0x2fc0] 
           7271   1        Seq               Begin       >       [0x4bea, line 0x4bc0] ST
   7274: system.l1_cntrl1: MSI-cache.sm:344: L1 - mandatoryQueue_in request of type ST for address [0x4bc0, line 0x4bc0] - No replacement necessary
   7274: system.l1_cntrl1: MSI-cache.sm:537: [ 0x0 0x0 0x0 0x0 0x0 0x0 0x0 0x0 0x0 0x0 0x0 0x0 0x0 0x0 0x0 0x0 0x0 0x0 0x0 0x0 0x0 0x0 0x0 0x0 0x0 0x0 0x0 0x0 0x0 0x0 0x0 0x0 0x0 0x0 0x0 0x0 0x0 0x0 0x0 0x0 0x58 0x59 0x0 0x0 0x0 0x0 0x0 0x0 0x0 0x0 0x0 0x0 0x0 0x0 0x0 0x0 0x0 0x0 0x0 0x0 0x0 0x0 0x0 0x0 ]
           7274   1        Seq                Done       >       [0x4bea, line 0x4bc0] 3 cycles
   7274: system.l1_cntrl1: MSI-cache.sm:541: light5 address=[0x4bc0, line 0x4bc0], data=[ 0x0 0x0 0x0 0x0 0x0 0x0 0x0 0x0 0x0 0x0 0x0 0x0 0x0 0x0 0x0 0x0 0x0 0x0 0x0 0x0 0x0 0x0 0x0 0x0 0x0 0x0 0x0 0x0 0x0 0x0 0x0 0x0 0x0 0x0 0x0 0x0 0x0 0x0 0x0 0x0 0x58 0x59 0x5a 0x0 0x0 0x0 0x0 0x0 0x0 0x0 0x0 0x0 0x0 0x0 0x0 0x0 0x0 0x0 0x0 0x0 0x0 0x0 0x0 0x0 ]
           7274   1    L1Cache               Store      M>M      [0x4bc0, line 0x4bc0] 
           7291   1        Seq               Begin       >       [0xaec, line 0xac0] ST
   7293: system.l1_cntrl1: MSI-cache.sm:344: L1 - mandatoryQueue_in request of type ST for address [0xac0, line 0xac0] - No replacement necessary
           7293   1    L1Cache               Store      I>IM_AD  [0xac0, line 0xac0] 
   7338: system.dir_cntrl0: MSI-dir.sm:226: Directory - requestQueue_in port: GETM request for address [0x20c0, line 0x20c0] from machine L1Cache-0
   7338: system.dir_cntrl0: MSI-dir.sm:464: Directory - memQueue_out: send MEMORY_READ request for address [0x20c0, line 0x20c0] triggered from machine Directory-0
           7338   0  Directory                GETM      I>IM_D   [0x20c0, line 0x20c0] 
   7453: system.dir_cntrl0: MSI-dir.sm:230: Directory - requestQueue_in port: PUTM for address [0x5fc0, line 0x5fc0] from its owner machine L1Cache-0
   7453: system.dir_cntrl0: MSI-dir.sm:492: Directory - memQueue_out: send MEMORY_WB request for address [0x5fc0, line 0x5fc0] triggered from machine L1Cache-0
           7453   0  Directory          PUTM_Owner      M>MI_A   [0x5fc0, line 0x5fc0] 
   7472: system.dir_cntrl0: MSI-dir.sm:265: Directory - memQueue_in port: MEMORY_READ for address [0x20c0, line 0x20c0] from  machine L1Cache-0
   7472: system.dir_cntrl0: MSI-dir.sm:512: Directory - Popping Request from memQueue
           7472   0  Directory         Memory_Data   IM_D>M      [0x20c0, line 0x20c0] 
   7489: system.l1_cntrl0: MSI-cache.sm:294: L1 - responseNetwork_in port: DATA_FROM_DIR_NO_ACKS reply for address [0x20c0, line 0x20c0]
   7489: system.l1_cntrl0: MSI-cache.sm:549: [ 0x0 0x0 0x0 0x0 0x0 0x0 0x0 0x0 0x0 0x0 0x0 0x0 0x0 0x0 0x0 0x0 0x0 0x0 0x0 0x0 0x0 0x0 0x0 0x0 0x0 0x0 0x0 0x0 0x0 0x0 0x0 0x0 0x0 0x0 0x0 0x0 0x0 0x0 0x0 0x0 0x0 0x0 0x0 0x0 0x0 0x0 0x0 0x0 0x0 0x0 0x0 0x0 0x0 0x0 0x0 0x0 0x0 0x0 0x0 0x0 0x0 0x0 0x0 0x0 ]
           7489   0        Seq                Done       >       [0x20ec, line 0x20c0] 378 cycles
   7489: system.l1_cntrl0: MSI-cache.sm:553: light6 address=[0x20c0, line 0x20c0] data=[ 0x0 0x0 0x0 0x0 0x0 0x0 0x0 0x0 0x0 0x0 0x0 0x0 0x0 0x0 0x0 0x0 0x0 0x0 0x0 0x0 0x0 0x0 0x0 0x0 0x0 0x0 0x0 0x0 0x0 0x0 0x0 0x0 0x0 0x0 0x0 0x0 0x0 0x0 0x0 0x0 0x0 0x0 0x0 0x0 0x13 0x0 0x0 0x0 0x0 0x0 0x0 0x0 0x0 0x0 0x0 0x0 0x0 0x0 0x0 0x0 0x0 0x0 0x0 0x0 ]
           7489   0    L1CacheData_from_Dir_No_Acks  IM_AD>M      [0x20c0, line 0x20c0] 
           7501   0        Seq               Begin       >       [0x35ec, line 0x35c0] ST
   7569: system.dir_cntrl0: MSI-dir.sm:226: Directory - requestQueue_in port: GETM request for address [0xac0, line 0xac0] from machine L1Cache-1
   7569: system.dir_cntrl0: MSI-dir.sm:464: Directory - memQueue_out: send MEMORY_READ request for address [0xac0, line 0xac0] triggered from machine Directory-0
           7569   0  Directory                GETM      I>IM_D   [0xac0, line 0xac0] 
   7592: system.dir_cntrl0: MSI-dir.sm:268: Directory - memQueue_in port: MEMORY_WB for address [0x5fc0, line 0x5fc0] from  machine L1Cache-0
   7592: system.dir_cntrl0: MSI-dir.sm:331: Directory - forwardNetwork_out: WB_ACK after Memory Ack for address [0x5fc0, line 0x5fc0]  to machine L1Cache-0
   7592: system.dir_cntrl0: MSI-dir.sm:512: Directory - Popping Request from memQueue
           7592   0  Directory          Memory_Ack   MI_A>I      [0x5fc0, line 0x5fc0] 
   7609: system.l1_cntrl0: MSI-cache.sm:271: L1 - forwardRequestNetwork_in port: WB_ACK messsage for address [0x5fc0, line 0x5fc0]
           7609   0    L1Cache              WB_Ack   MI_A>I      [0x5fc0, line 0x5fc0] 
   7615: system.l1_cntrl0: MSI-cache.sm:337: L1 - mandatoryQueue_in request for address [0x35c0, line 0x35c0] - Need to replace entry
   7615: system.l1_cntrl0: MSI-cache.sm:583: forward_eviction to cpu; send_evictions is 0
           7615   0    L1Cache         Replacement      M>MI_A   [0x59c0, line 0x59c0] 
   7633: system.dir_cntrl0: MSI-dir.sm:230: Directory - requestQueue_in port: PUTM for address [0x59c0, line 0x59c0] from its owner machine L1Cache-0
   7633: system.dir_cntrl0: MSI-dir.sm:492: Directory - memQueue_out: send MEMORY_WB request for address [0x59c0, line 0x59c0] triggered from machine L1Cache-0
           7633   0  Directory          PUTM_Owner      M>MI_A   [0x59c0, line 0x59c0] 
   7702: system.dir_cntrl0: MSI-dir.sm:265: Directory - memQueue_in port: MEMORY_READ for address [0xac0, line 0xac0] from  machine L1Cache-1
   7702: system.dir_cntrl0: MSI-dir.sm:512: Directory - Popping Request from memQueue
           7702   0  Directory         Memory_Data   IM_D>M      [0xac0, line 0xac0] 
   7772: system.dir_cntrl0: MSI-dir.sm:268: Directory - memQueue_in port: MEMORY_WB for address [0x59c0, line 0x59c0] from  machine L1Cache-0
   7772: system.dir_cntrl0: MSI-dir.sm:331: Directory - forwardNetwork_out: WB_ACK after Memory Ack for address [0x59c0, line 0x59c0]  to machine L1Cache-0
   7772: system.dir_cntrl0: MSI-dir.sm:512: Directory - Popping Request from memQueue
           7772   0  Directory          Memory_Ack   MI_A>I      [0x59c0, line 0x59c0] 
   7830: system.l1_cntrl1: MSI-cache.sm:294: L1 - responseNetwork_in port: DATA_FROM_DIR_NO_ACKS reply for address [0xac0, line 0xac0]
   7830: system.l1_cntrl1: MSI-cache.sm:549: [ 0x0 0x0 0x0 0x0 0x0 0x0 0x0 0x0 0x0 0x0 0x0 0x0 0x0 0x0 0x0 0x0 0x0 0x0 0x0 0x0 0x0 0x0 0x0 0x0 0x0 0x0 0x0 0x0 0x0 0x0 0x0 0x0 0x0 0x0 0x0 0x0 0x0 0x0 0x0 0x0 0x0 0x0 0x0 0x0 0x0 0x0 0x0 0x0 0x0 0x0 0x0 0x0 0x0 0x0 0x0 0x0 0x0 0x0 0x0 0x0 0x0 0x0 0x0 0x0 ]
           7830   1        Seq                Done       >       [0xaec, line 0xac0] 539 cycles
   7830: system.l1_cntrl1: MSI-cache.sm:553: light6 address=[0xac0, line 0xac0] data=[ 0x0 0x0 0x0 0x0 0x0 0x0 0x0 0x0 0x0 0x0 0x0 0x0 0x0 0x0 0x0 0x0 0x0 0x0 0x0 0x0 0x0 0x0 0x0 0x0 0x0 0x0 0x0 0x0 0x0 0x0 0x0 0x0 0x0 0x0 0x0 0x0 0x0 0x0 0x0 0x0 0x0 0x0 0x0 0x0 0xc2 0x0 0x0 0x0 0x0 0x0 0x0 0x0 0x0 0x0 0x0 0x0 0x0 0x0 0x0 0x0 0x0 0x0 0x0 0x0 ]
           7830   1    L1CacheData_from_Dir_No_Acks  IM_AD>M      [0xac0, line 0xac0] 
           7851   1        Seq               Begin       >       [0x40ea, line 0x40c0] ST
   7855: system.l1_cntrl1: MSI-cache.sm:344: L1 - mandatoryQueue_in request of type ST for address [0x40c0, line 0x40c0] - No replacement necessary
   7855: system.l1_cntrl1: MSI-cache.sm:537: [ 0x0 0x0 0x0 0x0 0x0 0x0 0x0 0x0 0x0 0x0 0x0 0x0 0x0 0x0 0x0 0x0 0x0 0x0 0x0 0x0 0x0 0x0 0x0 0x0 0x0 0x0 0x0 0x0 0x0 0x0 0x0 0x0 0x0 0x0 0x0 0x0 0x0 0x0 0x0 0x0 0x0 0x81 0x0 0x0 0x0 0x76 0x0 0x0 0x0 0x0 0x0 0x0 0x0 0x0 0x0 0x0 0x0 0x0 0x0 0x0 0x0 0x0 0x0 0x0 ]
           7855   1        Seq                Done       >       [0x40ea, line 0x40c0] 4 cycles
   7855: system.l1_cntrl1: MSI-cache.sm:541: light5 address=[0x40c0, line 0x40c0], data=[ 0x0 0x0 0x0 0x0 0x0 0x0 0x0 0x0 0x0 0x0 0x0 0x0 0x0 0x0 0x0 0x0 0x0 0x0 0x0 0x0 0x0 0x0 0x0 0x0 0x0 0x0 0x0 0x0 0x0 0x0 0x0 0x0 0x0 0x0 0x0 0x0 0x0 0x0 0x0 0x0 0x0 0x81 0x82 0x0 0x0 0x76 0x0 0x0 0x0 0x0 0x0 0x0 0x0 0x0 0x0 0x0 0x0 0x0 0x0 0x0 0x0 0x0 0x0 0x0 ]
           7855   1    L1Cache               Store      M>M      [0x40c0, line 0x40c0] 
   7899: system.l1_cntrl0: MSI-cache.sm:271: L1 - forwardRequestNetwork_in port: WB_ACK messsage for address [0x59c0, line 0x59c0]
           7899   0    L1Cache              WB_Ack   MI_A>I      [0x59c0, line 0x59c0] 
           7981   1        Seq               Begin       >       [0x4beb, line 0x4bc0] ST
   7984: system.l1_cntrl1: MSI-cache.sm:344: L1 - mandatoryQueue_in request of type ST for address [0x4bc0, line 0x4bc0] - No replacement necessary
   7984: system.l1_cntrl1: MSI-cache.sm:537: [ 0x0 0x0 0x0 0x0 0x0 0x0 0x0 0x0 0x0 0x0 0x0 0x0 0x0 0x0 0x0 0x0 0x0 0x0 0x0 0x0 0x0 0x0 0x0 0x0 0x0 0x0 0x0 0x0 0x0 0x0 0x0 0x0 0x0 0x0 0x0 0x0 0x0 0x0 0x0 0x0 0x58 0x59 0x5a 0x0 0x0 0x0 0x0 0x0 0x0 0x0 0x0 0x0 0x0 0x0 0x0 0x0 0x0 0x0 0x0 0x0 0x0 0x0 0x0 0x0 ]
           7984   1        Seq                Done       >       [0x4beb, line 0x4bc0] 3 cycles
   7984: system.l1_cntrl1: MSI-cache.sm:541: light5 address=[0x4bc0, line 0x4bc0], data=[ 0x0 0x0 0x0 0x0 0x0 0x0 0x0 0x0 0x0 0x0 0x0 0x0 0x0 0x0 0x0 0x0 0x0 0x0 0x0 0x0 0x0 0x0 0x0 0x0 0x0 0x0 0x0 0x0 0x0 0x0 0x0 0x0 0x0 0x0 0x0 0x0 0x0 0x0 0x0 0x0 0x58 0x59 0x5a 0x5b 0x0 0x0 0x0 0x0 0x0 0x0 0x0 0x0 0x0 0x0 0x0 0x0 0x0 0x0 0x0 0x0 0x0 0x0 0x0 0x0 ]
           7984   1    L1Cache               Store      M>M      [0x4bc0, line 0x4bc0] 
           8001   1        Seq               Begin       >       [0x449, line 0x440] ST
   8002: system.l1_cntrl1: MSI-cache.sm:344: L1 - mandatoryQueue_in request of type ST for address [0x440, line 0x440] - No replacement necessary
   8002: system.l1_cntrl1: MSI-cache.sm:537: [ 0x0 0x0 0x0 0x0 0x57 0x0 0x0 0x0 0x50 0x0 0x0 0x0 0x8b 0x8c 0x0 0x0 0x0 0x0 0x0 0x0 0x91 0x0 0x0 0x0 0x0 0x0 0x0 0x0 0x3a 0x0 0x0 0x0 0x55 0x0 0x0 0x0 0x0 0x0 0x0 0x0 0x0 0x0 0x0 0x0 0x0 0x0 0x0 0x0 0x0 0x0 0x0 0x0 0x0 0x0 0x0 0x0 0x0 0x0 0x0 0x0 0x0 0x0 0x0 0x0 ]
           8002   1        Seq                Done       >       [0x449, line 0x440] 1 cycles
   8002: system.l1_cntrl1: MSI-cache.sm:541: light5 address=[0x440, line 0x440], data=[ 0x0 0x0 0x0 0x0 0x57 0x0 0x0 0x0 0x50 0x51 0x0 0x0 0x8b 0x8c 0x0 0x0 0x0 0x0 0x0 0x0 0x91 0x0 0x0 0x0 0x0 0x0 0x0 0x0 0x3a 0x0 0x0 0x0 0x55 0x0 0x0 0x0 0x0 0x0 0x0 0x0 0x0 0x0 0x0 0x0 0x0 0x0 0x0 0x0 0x0 0x0 0x0 0x0 0x0 0x0 0x0 0x0 0x0 0x0 0x0 0x0 0x0 0x0 0x0 0x0 ]
           8002   1    L1Cache               Store      M>M      [0x440, line 0x440] 
           8021   1        Seq               Begin       >       [0xeec, line 0xec0] ST
   8023: system.l1_cntrl1: MSI-cache.sm:344: L1 - mandatoryQueue_in request of type ST for address [0xec0, line 0xec0] - No replacement necessary
   8023: system.l1_cntrl1: MSI-cache.sm:537: [ 0x0 0x0 0x0 0x0 0x0 0x0 0x0 0x0 0x0 0x0 0x0 0x0 0x0 0x0 0x0 0x0 0x0 0x0 0x0 0x0 0x0 0x0 0x0 0x0 0x0 0x0 0x0 0x0 0x0 0x0 0x0 0x0 0x0 0x0 0x0 0x0 0x0 0x0 0x0 0x0 0x0 0x5 0x6 0x0 0x0 0x0 0x0 0x0 0x0 0x0 0x0 0x0 0x0 0x0 0x0 0x0 0x0 0x0 0x0 0x0 0x0 0x0 0x0 0x0 ]
           8023   1        Seq                Done       >       [0xeec, line 0xec0] 2 cycles
   8023: system.l1_cntrl1: MSI-cache.sm:541: light5 address=[0xec0, line 0xec0], data=[ 0x0 0x0 0x0 0x0 0x0 0x0 0x0 0x0 0x0 0x0 0x0 0x0 0x0 0x0 0x0 0x0 0x0 0x0 0x0 0x0 0x0 0x0 0x0 0x0 0x0 0x0 0x0 0x0 0x0 0x0 0x0 0x0 0x0 0x0 0x0 0x0 0x0 0x0 0x0 0x0 0x0 0x5 0x6 0x0 0xe 0x0 0x0 0x0 0x0 0x0 0x0 0x0 0x0 0x0 0x0 0x0 0x0 0x0 0x0 0x0 0x0 0x0 0x0 0x0 ]
           8023   1    L1Cache               Store      M>M      [0xec0, line 0xec0] 
           8051   1        Seq               Begin       >       [0x18ee, line 0x18c0] ST
   8055: system.l1_cntrl1: MSI-cache.sm:344: L1 - mandatoryQueue_in request of type ST for address [0x18c0, line 0x18c0] - No replacement necessary
           8055   1    L1Cache               Store      I>IM_AD  [0x18c0, line 0x18c0] 
   8069: system.dir_cntrl0: MSI-dir.sm:226: Directory - requestQueue_in port: GETM request for address [0x18c0, line 0x18c0] from machine L1Cache-1
   8069: system.dir_cntrl0: MSI-dir.sm:412: Directory - forwardNetwork_out: forwarding message type GETM for address [0x18c0, line 0x18c0]  from machine L1Cache-1 to machine [NetDest (2) 1 0  - 0  - ]
           8069   0  Directory                GETM      M>M      [0x18c0, line 0x18c0] Own: [NetDest (2) 1 0  - 0  - ]Req: L1Cache-1
   8086: system.l1_cntrl0: MSI-cache.sm:259: L1 - forwardRequestNetwork_in port: GETM request for address [0x18c0, line 0x18c0]
   8086: system.l1_cntrl0: MSI-cache.sm:583: forward_eviction to cpu; send_evictions is 0
           8086   0    L1Cache            Fwd_GetM      M>I      [0x18c0, line 0x18c0] 
   8202: system.l1_cntrl1: MSI-cache.sm:307: L1 - responseNetwork_in port: DATA_FROM_OWNER reply for address [0x18c0, line 0x18c0]
   8202: system.l1_cntrl1: MSI-cache.sm:549: [ 0x0 0x0 0x0 0x0 0x0 0x0 0x0 0x0 0x0 0x0 0x0 0x0 0x0 0x0 0x0 0x0 0x0 0x0 0x0 0x0 0x0 0x0 0x0 0x0 0x0 0x0 0x0 0x0 0x0 0x0 0x0 0x0 0x0 0x0 0x0 0x0 0x0 0x0 0x0 0x0 0x10 0x11 0x0 0x0 0x8e 0x8f 0x0 0x0 0x0 0x0 0x0 0x0 0x0 0x0 0x0 0x0 0x0 0x0 0x0 0x0 0x0 0x0 0x0 0x0 ]
           8202   1        Seq                Done       >       [0x18ee, line 0x18c0] 151 cycles
   8202: system.l1_cntrl1: MSI-cache.sm:553: light6 address=[0x18c0, line 0x18c0] data=[ 0x0 0x0 0x0 0x0 0x0 0x0 0x0 0x0 0x0 0x0 0x0 0x0 0x0 0x0 0x0 0x0 0x0 0x0 0x0 0x0 0x0 0x0 0x0 0x0 0x0 0x0 0x0 0x0 0x0 0x0 0x0 0x0 0x0 0x0 0x0 0x0 0x0 0x0 0x0 0x0 0x10 0x11 0x0 0x0 0x8e 0x8f 0x90 0x0 0x0 0x0 0x0 0x0 0x0 0x0 0x0 0x0 0x0 0x0 0x0 0x0 0x0 0x0 0x0 0x0 ]
           8202   1    L1Cache     Data_from_Owner  IM_AD>M      [0x18c0, line 0x18c0] 
           8221   1        Seq               Begin       >       [0x20e8, line 0x20c0] ST
   8225: system.l1_cntrl1: MSI-cache.sm:344: L1 - mandatoryQueue_in request of type ST for address [0x20c0, line 0x20c0] - No replacement necessary
           8225   1    L1Cache               Store      I>IM_AD  [0x20c0, line 0x20c0] 
   8448: system.dir_cntrl0: MSI-dir.sm:226: Directory - requestQueue_in port: GETM request for address [0x20c0, line 0x20c0] from machine L1Cache-1
   8448: system.dir_cntrl0: MSI-dir.sm:412: Directory - forwardNetwork_out: forwarding message type GETM for address [0x20c0, line 0x20c0]  from machine L1Cache-1 to machine [NetDest (2) 1 0  - 0  - ]
           8448   0  Directory                GETM      M>M      [0x20c0, line 0x20c0] Own: [NetDest (2) 1 0  - 0  - ]Req: L1Cache-1
   8463: system.l1_cntrl0: MSI-cache.sm:259: L1 - forwardRequestNetwork_in port: GETM request for address [0x20c0, line 0x20c0]
   8463: system.l1_cntrl0: MSI-cache.sm:583: forward_eviction to cpu; send_evictions is 0
           8463   0    L1Cache            Fwd_GetM      M>I      [0x20c0, line 0x20c0] 
   8592: system.l1_cntrl1: MSI-cache.sm:307: L1 - responseNetwork_in port: DATA_FROM_OWNER reply for address [0x20c0, line 0x20c0]
   8592: system.l1_cntrl1: MSI-cache.sm:549: [ 0x0 0x0 0x0 0x0 0x0 0x0 0x0 0x0 0x0 0x0 0x0 0x0 0x0 0x0 0x0 0x0 0x0 0x0 0x0 0x0 0x0 0x0 0x0 0x0 0x0 0x0 0x0 0x0 0x0 0x0 0x0 0x0 0x0 0x0 0x0 0x0 0x0 0x0 0x0 0x0 0x0 0x0 0x0 0x0 0x13 0x0 0x0 0x0 0x0 0x0 0x0 0x0 0x0 0x0 0x0 0x0 0x0 0x0 0x0 0x0 0x0 0x0 0x0 0x0 ]
           8592   1        Seq                Done       >       [0x20e8, line 0x20c0] 371 cycles
   8592: system.l1_cntrl1: MSI-cache.sm:553: light6 address=[0x20c0, line 0x20c0] data=[ 0x0 0x0 0x0 0x0 0x0 0x0 0x0 0x0 0x0 0x0 0x0 0x0 0x0 0x0 0x0 0x0 0x0 0x0 0x0 0x0 0x0 0x0 0x0 0x0 0x0 0x0 0x0 0x0 0x0 0x0 0x0 0x0 0x0 0x0 0x0 0x0 0x0 0x0 0x0 0x0 0x92 0x0 0x0 0x0 0x13 0x0 0x0 0x0 0x0 0x0 0x0 0x0 0x0 0x0 0x0 0x0 0x0 0x0 0x0 0x0 0x0 0x0 0x0 0x0 ]
           8592   1    L1Cache     Data_from_Owner  IM_AD>M      [0x20c0, line 0x20c0] 
           8621   1        Seq               Begin       >       [0x16ea, line 0x16c0] ST
   8622: system.l1_cntrl1: MSI-cache.sm:344: L1 - mandatoryQueue_in request of type ST for address [0x16c0, line 0x16c0] - No replacement necessary
   8622: system.l1_cntrl1: MSI-cache.sm:537: [ 0x0 0x0 0x0 0x0 0x0 0x0 0x0 0x0 0x0 0x0 0x0 0x0 0x0 0x0 0x0 0x0 0x0 0x0 0x0 0x0 0x0 0x0 0x0 0x0 0x0 0x0 0x0 0x0 0x0 0x0 0x0 0x0 0x0 0x0 0x0 0x0 0x0 0x0 0x0 0x0 0xe5 0xe6 0x0 0x0 0xa7 0x0 0x0 0x0 0x0 0x0 0x0 0x0 0x0 0x0 0x0 0x0 0x0 0x0 0x0 0x0 0x0 0x0 0x0 0x0 ]
           8622   1        Seq                Done       >       [0x16ea, line 0x16c0] 1 cycles
   8622: system.l1_cntrl1: MSI-cache.sm:541: light5 address=[0x16c0, line 0x16c0], data=[ 0x0 0x0 0x0 0x0 0x0 0x0 0x0 0x0 0x0 0x0 0x0 0x0 0x0 0x0 0x0 0x0 0x0 0x0 0x0 0x0 0x0 0x0 0x0 0x0 0x0 0x0 0x0 0x0 0x0 0x0 0x0 0x0 0x0 0x0 0x0 0x0 0x0 0x0 0x0 0x0 0xe5 0xe6 0xe7 0x0 0xa7 0x0 0x0 0x0 0x0 0x0 0x0 0x0 0x0 0x0 0x0 0x0 0x0 0x0 0x0 0x0 0x0 0x0 0x0 0x0 ]
           8622   1    L1Cache               Store      M>M      [0x16c0, line 0x16c0] 
           8631   1        Seq               Begin       >       [0x4ce8, line 0x4cc0] ST
   8745: system.l1_cntrl1: MSI-cache.sm:337: L1 - mandatoryQueue_in request for address [0x4cc0, line 0x4cc0] - Need to replace entry
   8745: system.l1_cntrl1: MSI-cache.sm:583: forward_eviction to cpu; send_evictions is 0
           8745   1    L1Cache         Replacement      M>MI_A   [0x30c0, line 0x30c0] 
   8761: system.dir_cntrl0: MSI-dir.sm:230: Directory - requestQueue_in port: PUTM for address [0x30c0, line 0x30c0] from its owner machine L1Cache-1
   8761: system.dir_cntrl0: MSI-dir.sm:492: Directory - memQueue_out: send MEMORY_WB request for address [0x30c0, line 0x30c0] triggered from machine L1Cache-1
           8761   0  Directory          PUTM_Owner      M>MI_A   [0x30c0, line 0x30c0] 
   8892: system.dir_cntrl0: MSI-dir.sm:268: Directory - memQueue_in port: MEMORY_WB for address [0x30c0, line 0x30c0] from  machine L1Cache-1
   8892: system.dir_cntrl0: MSI-dir.sm:331: Directory - forwardNetwork_out: WB_ACK after Memory Ack for address [0x30c0, line 0x30c0]  to machine L1Cache-1
   8892: system.dir_cntrl0: MSI-dir.sm:512: Directory - Popping Request from memQueue
           8892   0  Directory          Memory_Ack   MI_A>I      [0x30c0, line 0x30c0] 
   8908: system.l1_cntrl1: MSI-cache.sm:271: L1 - forwardRequestNetwork_in port: WB_ACK messsage for address [0x30c0, line 0x30c0]
           8908   1    L1Cache              WB_Ack   MI_A>I      [0x30c0, line 0x30c0] 
